data_image0
_chemical_formula_structural       B6OC3OC3OC3OC3OC3OC3OC3OC3OC3OC3OC3OC3H12B6OC3OC3OC3OC3OC3OC3OC3OC3OC3OC3OC3OC3H12SnCSn2CSnTe4Mg2SnCSn2CSnTe4Mg2SnCSn2CSnTe4Mg2SnCSn2CSnTe4Mg2SnCSn2CSnTe4Mg2SnCSn2CSnTe4Mg2
_chemical_formula_sum              "B12 O24 C84 H24 Sn24 Te24 Mg12"
_cell_length_a       30.1213
_cell_length_b       30.1644
_cell_length_c       8.11275
_cell_angle_alpha    106.962
_cell_angle_beta     105.934
_cell_angle_gamma    119.866

_symmetry_space_group_name_H-M    'P1'
_space_group_IT_number       1

loop_
  _space_group_symop_operation_xyz
  'x, y, z'

loop_
  _atom_site_type_symbol
  _atom_site_label
  _atom_site_symmetry_multiplicity
  _atom_site_fract_x
  _atom_site_fract_y
  _atom_site_fract_z
  _atom_site_occupancy
  B   B1        1.0  0.10978  0.55342  0.25851  1.0000
  B   B2        1.0  0.44089  0.55752  0.23909  1.0000
  B   B3        1.0  0.43698  0.88876  0.26564  1.0000
  B   B4        1.0  0.88243  0.43809  0.24867  1.0000
  B   B5        1.0  0.55373  0.44409  0.24060  1.0000
  B   B6        1.0  0.54956  0.11326  0.25705  1.0000
  O   O1        1.0  0.60359  0.14297  0.25833  1.0000
  C   C1        1.0  0.61359  0.19240  0.25333  1.0000
  C   C2        1.0  0.66016  0.23623  0.25187  1.0000
  C   C3        1.0  0.66151  0.28405  0.25286  1.0000
  O   O2        1.0  0.85450  0.46390  0.25998  1.0000
  C   C4        1.0  0.80402  0.42426  0.25861  1.0000
  C   C5        1.0  0.76032  0.42735  0.26175  1.0000
  C   C6        1.0  0.71199  0.38029  0.25706  1.0000
  O   O3        1.0  0.53033  0.39097  0.24387  1.0000
  C   C7        1.0  0.57082  0.38111  0.24841  1.0000
  C   C8        1.0  0.56895  0.33504  0.25209  1.0000
  C   C9        1.0  0.61597  0.33427  0.25485  1.0000
  O   O4        1.0  0.38348  0.85737  0.26612  1.0000
  C   C10       1.0  0.37562  0.80846  0.26964  1.0000
  C   C11       1.0  0.33017  0.76336  0.27130  1.0000
  C   C12       1.0  0.33051  0.71608  0.26610  1.0000
  O   O5        1.0  0.13862  0.52877  0.24081  1.0000
  C   C13       1.0  0.18905  0.57043  0.24649  1.0000
  C   C14       1.0  0.23310  0.56874  0.23780  1.0000
  C   C15       1.0  0.28128  0.61787  0.24885  1.0000
  O   O6        1.0  0.46374  0.61140  0.24103  1.0000
  C   C16       1.0  0.42306  0.62068  0.24221  1.0000
  C   C17       1.0  0.42437  0.66723  0.24674  1.0000
  C   C18       1.0  0.37729  0.66704  0.24989  1.0000
  O   O7        1.0  0.14160  0.60936  0.27382  1.0000
  C   C19       1.0  0.19066  0.61893  0.26541  1.0000
  C   C20       1.0  0.23597  0.66678  0.27309  1.0000
  C   C21       1.0  0.28226  0.66672  0.26316  1.0000
  O   O8        1.0  0.46169  0.85959  0.26762  1.0000
  C   C22       1.0  0.42237  0.80931  0.26770  1.0000
  C   C23       1.0  0.42404  0.76414  0.26045  1.0000
  C   C24       1.0  0.37738  0.71609  0.25819  1.0000
  O   O9        1.0  0.38698  0.53354  0.23779  1.0000
  C   C25       1.0  0.37674  0.57357  0.23949  1.0000
  C   C26       1.0  0.33028  0.57139  0.24114  1.0000
  C   C27       1.0  0.32976  0.61857  0.24553  1.0000
  O   O10       1.0  0.85017  0.38353  0.24167  1.0000
  C   C28       1.0  0.80174  0.37604  0.24957  1.0000
  C   C29       1.0  0.75643  0.33020  0.24884  1.0000
  C   C30       1.0  0.71040  0.33180  0.25310  1.0000
  O   O11       1.0  0.52641  0.14368  0.25067  1.0000
  C   C31       1.0  0.56742  0.19329  0.25143  1.0000
  C   C32       1.0  0.56730  0.23890  0.25422  1.0000
  C   C33       1.0  0.61501  0.28551  0.25514  1.0000
  O   O12       1.0  0.60759  0.46677  0.24207  1.0000
  C   C34       1.0  0.61761  0.42695  0.24834  1.0000
  C   C35       1.0  0.66402  0.42810  0.25175  1.0000
  C   C36       1.0  0.66392  0.38120  0.25565  1.0000
  H   H1        1.0  0.69477  0.23369  0.25146  1.0000
  H   H2        1.0  0.76315  0.46489  0.26503  1.0000
  H   H3        1.0  0.53223  0.30067  0.25397  1.0000
  H   H4        1.0  0.29490  0.76435  0.27400  1.0000
  H   H5        1.0  0.23015  0.53034  0.22335  1.0000
  H   H6        1.0  0.46058  0.70257  0.24602  1.0000
  H   H7        1.0  0.23560  0.70344  0.28771  1.0000
  H   H8        1.0  0.46001  0.76555  0.25228  1.0000
  H   H9        1.0  0.29595  0.53474  0.24342  1.0000
  H   H10       1.0  0.75651  0.29393  0.24368  1.0000
  H   H11       1.0  0.53171  0.23891  0.25905  1.0000
  H   H12       1.0  0.69882  0.46355  0.24681  1.0000
  B   B7        1.0  0.10717  0.55129  0.75566  1.0000
  B   B8        1.0  0.43293  0.54318  0.73399  1.0000
  B   B9        1.0  0.44207  0.88035  0.76833  1.0000
  B   B10       1.0  0.87980  0.43516  0.74636  1.0000
  B   B11       1.0  0.54696  0.43071  0.74501  1.0000
  B   B12       1.0  0.55418  0.10423  0.75854  1.0000
  O   O13       1.0  0.60805  0.13561  0.76045  1.0000
  C   C37       1.0  0.61605  0.18444  0.75577  1.0000
  C   C38       1.0  0.66168  0.22921  0.75387  1.0000
  C   C39       1.0  0.66089  0.27581  0.75317  1.0000
  O   O14       1.0  0.85032  0.45932  0.75788  1.0000
  C   C40       1.0  0.80039  0.41839  0.75607  1.0000
  C   C41       1.0  0.75583  0.41976  0.76007  1.0000
  C   C42       1.0  0.70846  0.37176  0.75556  1.0000
  O   O15       1.0  0.52491  0.37793  0.75056  1.0000
  C   C43       1.0  0.56593  0.36889  0.75331  1.0000
  C   C44       1.0  0.56531  0.32326  0.75598  1.0000
  C   C45       1.0  0.61269  0.32352  0.75616  1.0000
  O   O16       1.0  0.38835  0.85067  0.76889  1.0000
  C   C46       1.0  0.37844  0.80107  0.77230  1.0000
  C   C47       1.0  0.33178  0.75680  0.77205  1.0000
  C   C48       1.0  0.33015  0.70848  0.76663  1.0000
  O   O17       1.0  0.13405  0.52458  0.73520  1.0000
  C   C49       1.0  0.18542  0.56533  0.74310  1.0000
  C   C50       1.0  0.22864  0.56189  0.73554  1.0000
  C   C51       1.0  0.27795  0.61008  0.74756  1.0000
  O   O18       1.0  0.45772  0.59805  0.74239  1.0000
  C   C52       1.0  0.41797  0.60855  0.74428  1.0000
  C   C53       1.0  0.42127  0.65626  0.75265  1.0000
  C   C54       1.0  0.37460  0.65719  0.75366  1.0000
  O   O19       1.0  0.14103  0.60755  0.77481  1.0000
  C   C55       1.0  0.18920  0.61506  0.76429  1.0000
  C   C56       1.0  0.23561  0.66212  0.77280  1.0000
  C   C57       1.0  0.28087  0.65997  0.76254  1.0000
  O   O20       1.0  0.46539  0.85003  0.77334  1.0000
  C   C58       1.0  0.42458  0.80031  0.77262  1.0000
  C   C59       1.0  0.42476  0.75460  0.76776  1.0000
  C   C60       1.0  0.37659  0.70715  0.76257  1.0000
  O   O21       1.0  0.37874  0.51993  0.73060  1.0000
  C   C61       1.0  0.37013  0.56132  0.73603  1.0000
  C   C62       1.0  0.32409  0.56039  0.73647  1.0000
  C   C63       1.0  0.32562  0.60893  0.74488  1.0000
  O   O22       1.0  0.84888  0.38030  0.73866  1.0000
  C   C64       1.0  0.79981  0.37098  0.74637  1.0000
  C   C65       1.0  0.75534  0.32423  0.74538  1.0000
  C   C66       1.0  0.70866  0.32421  0.75158  1.0000
  O   O23       1.0  0.52943  0.13328  0.75447  1.0000
  C   C67       1.0  0.56897  0.18344  0.75430  1.0000
  C   C68       1.0  0.56692  0.22804  0.75617  1.0000
  C   C69       1.0  0.61349  0.27553  0.75628  1.0000
  O   O24       1.0  0.60075  0.45420  0.74552  1.0000
  C   C70       1.0  0.61171  0.41504  0.75111  1.0000
  C   C71       1.0  0.65827  0.41709  0.75126  1.0000
  C   C72       1.0  0.65964  0.37097  0.75530  1.0000
  H   H13       1.0  0.69710  0.22810  0.75380  1.0000
  H   H14       1.0  0.75752  0.45687  0.76472  1.0000
  H   H15       1.0  0.52955  0.28874  0.76069  1.0000
  H   H16       1.0  0.29711  0.75916  0.77322  1.0000
  H   H17       1.0  0.22461  0.52310  0.72248  1.0000
  H   H18       1.0  0.45875  0.69170  0.75668  1.0000
  H   H19       1.0  0.23721  0.69993  0.78935  1.0000
  H   H20       1.0  0.46076  0.75520  0.76428  1.0000
  H   H21       1.0  0.28845  0.52366  0.73440  1.0000
  H   H22       1.0  0.75652  0.28841  0.73824  1.0000
  H   H23       1.0  0.53059  0.22661  0.76034  1.0000
  H   H24       1.0  0.69199  0.45280  0.74403  1.0000
  C  Sn1       1.0  0.43152  0.97524  0.19047  1.0000
  C   C73       1.0  0.45298  0.94388  0.20329  1.0000
  C  Sn2       1.0  0.51259  0.97113  0.26376  1.0000
  C  Sn3       1.0  0.55158  0.03098  0.31257  1.0000
  C   C74       1.0  0.03143  0.06231  0.29978  1.0000
  C  Sn4       1.0  0.47051  0.03510  0.23928  1.0000
  O  Te1       1.0  0.37177  0.94712  0.12968  1.0000
  O  Te2       1.0  0.53300  0.93886  0.27537  1.0000
  O  Te3       1.0  0.11268  0.05909  0.37339  1.0000
  O  Te4       1.0  0.95141  0.06734  0.22770  1.0000
  Mg  Mg1       1.0  0.61813  0.99663  0.36596  1.0000
  Mg  Mg2       1.0  0.36498  0.00962  0.13723  1.0000
  C  Sn5       1.0  0.02148  0.55622  0.32606  1.0000
  C   C75       1.0  0.05330  0.53510  0.31582  1.0000
  C  Sn6       1.0  0.02608  0.47520  0.25227  1.0000
  C  Sn7       1.0  0.96577  0.43558  0.19770  1.0000
  C   C76       1.0  0.93398  0.45670  0.20792  1.0000
  C  Sn8       1.0  0.96117  0.51659  0.27148  1.0000
  O  Te5       1.0  0.04959  0.61627  0.39000  1.0000
  O  Te6       1.0  0.05882  0.45513  0.24333  1.0000
  O  Te7       1.0  0.93768  0.37549  0.13373  1.0000
  O  Te8       1.0  0.92847  0.53667  0.28040  1.0000
  Mg  Mg3       1.0  0.00086  0.36939  0.14668  1.0000
  Mg  Mg4       1.0  0.98636  0.62239  0.37693  1.0000
  C  Sn9       1.0  0.55794  0.54597  0.30239  1.0000
  C   C77       1.0  0.53684  0.49187  0.29428  1.0000
  C  Sn10      1.0  0.47765  0.45105  0.23939  1.0000
  C  Sn11      1.0  0.43870  0.46456  0.19146  1.0000
  C   C78       1.0  0.45980  0.51863  0.19954  1.0000
  C  Sn12      1.0  0.51899  0.55949  0.25446  1.0000
  O  Te9       1.0  0.61728  0.58611  0.35764  1.0000
  O  Te10      1.0  0.45759  0.39726  0.23243  1.0000
  O  Te11      1.0  0.37932  0.42436  0.13618  1.0000
  O  Te12      1.0  0.53905  0.61324  0.26140  1.0000
  Mg  Mg5       1.0  0.37294  0.35699  0.14856  1.0000
  Mg  Mg6       1.0  0.62367  0.65352  0.34514  1.0000
  C  Sn13      1.0  0.04022  0.99862  0.70778  1.0000
  C   C79       1.0  0.02064  0.03202  0.70856  1.0000
  C  Sn14      1.0  0.97663  0.02151  0.75692  1.0000
  C  Sn15      1.0  0.95169  0.97670  0.80566  1.0000
  C   C80       1.0  0.97127  0.94333  0.80491  1.0000
  C  Sn16      1.0  0.01527  0.95380  0.75652  1.0000
  O  Te13      1.0  0.08426  0.00989  0.65898  1.0000
  O  Te14      1.0  0.95777  0.05547  0.75662  1.0000
  O  Te15      1.0  0.90761  0.96544  0.85448  1.0000
  O  Te16      1.0  0.03414  0.91988  0.75685  1.0000
  Mg  Mg7       1.0  0.89666  0.02345  0.83343  1.0000
  Mg  Mg8       1.0  0.09526  0.95188  0.68016  1.0000
  C  Sn17      1.0  0.96967  0.52133  0.69771  1.0000
  C   C81       1.0  0.93650  0.46769  0.69321  1.0000
  C  Sn18      1.0  0.96206  0.44176  0.73847  1.0000
  C  Sn19      1.0  0.02204  0.47006  0.78941  1.0000
  C   C82       1.0  0.05518  0.52367  0.79392  1.0000
  C  Sn20      1.0  0.02965  0.54962  0.74865  1.0000
  O  Te17      1.0  0.94321  0.54645  0.65193  1.0000
  O  Te18      1.0  0.92801  0.38811  0.73291  1.0000
  O  Te19      1.0  0.04849  0.44489  0.83520  1.0000
  O  Te20      1.0  0.06367  0.60325  0.75423  1.0000
  Mg  Mg9       1.0  0.98393  0.37139  0.80719  1.0000
  Mg  Mg10      1.0  0.00781  0.62002  0.68008  1.0000
  C  Sn21      1.0  0.44391  0.42546  0.67110  1.0000
  C   C83       1.0  0.49813  0.44624  0.68020  1.0000
  C  Sn22      1.0  0.53897  0.50535  0.73369  1.0000
  C  Sn23      1.0  0.52535  0.54451  0.77917  1.0000
  C   C84       1.0  0.47116  0.52373  0.77009  1.0000
  C  Sn24      1.0  0.43029  0.46463  0.71657  1.0000
  O  Te21      1.0  0.40375  0.36620  0.61728  1.0000
  O  Te22      1.0  0.59288  0.52509  0.74169  1.0000
  O  Te23      1.0  0.56557  0.60381  0.83301  1.0000
  O  Te24      1.0  0.37641  0.44488  0.70860  1.0000
  Mg  Mg11      1.0  0.63312  0.60973  0.82286  1.0000
  Mg  Mg12      1.0  0.33616  0.36027  0.62755  1.0000
