data_image0
_chemical_formula_structural       B3OC3HOC3HOC3HOC3HOC3HOC3HC6H3B3OC3HOC3HOC3HOC3HOC3HOC3HC6H3SnCSn2CSnTe4Mg2SnCSn2CSnTe4Mg2SnCSn2CSnTe4Mg2SnCSn2CSnTe4Mg2SnCSn2CSnTe4Mg2SnCSn2CSnTe4Mg2
_chemical_formula_sum              "B6 O12 C60 H18 Sn24 Te24 Mg12"
_cell_length_a       22.5722
_cell_length_b       22.6258
_cell_length_c       8.03509
_cell_angle_alpha    62.3584
_cell_angle_beta     94.8504
_cell_angle_gamma    120.007

_symmetry_space_group_name_H-M    'P1'
_space_group_IT_number       1

loop_
  _space_group_symop_operation_xyz
  'x, y, z'

loop_
  _atom_site_type_symbol
  _atom_site_label
  _atom_site_symmetry_multiplicity
  _atom_site_fract_x
  _atom_site_fract_y
  _atom_site_fract_z
  _atom_site_occupancy
  B   B1        1.0  0.47609  0.95963  0.25193  1.0000
  B   B2        1.0  0.03931  0.51672  0.24112  1.0000
  B   B3        1.0  0.48495  0.52338  0.25154  1.0000
  O   O1        1.0  0.08195  0.48980  0.22647  1.0000
  C   C1        1.0  0.27074  0.60463  0.23641  1.0000
  C   C2        1.0  0.14796  0.54250  0.23440  1.0000
  C   C3        1.0  0.20889  0.54314  0.22747  1.0000
  H   H1        1.0  0.20884  0.49779  0.21305  1.0000
  O   O2        1.0  0.51425  0.59283  0.26144  1.0000
  C   C4        1.0  0.39785  0.66736  0.24846  1.0000
  C   C5        1.0  0.46007  0.60592  0.25590  1.0000
  C   C6        1.0  0.46064  0.66651  0.25816  1.0000
  H   H2        1.0  0.50823  0.71181  0.26887  1.0000
  O   O3        1.0  0.40463  0.91864  0.24888  1.0000
  C   C7        1.0  0.33271  0.73010  0.24747  1.0000
  C   C8        1.0  0.39289  0.85267  0.24754  1.0000
  C   C9        1.0  0.33178  0.79261  0.24639  1.0000
  H   H3        1.0  0.28440  0.79387  0.24561  1.0000
  O   O4        1.0  0.50826  0.92008  0.25105  1.0000
  C   C10       1.0  0.39660  0.73132  0.24783  1.0000
  C   C11       1.0  0.45546  0.85368  0.24851  1.0000
  C   C12       1.0  0.45878  0.79490  0.24741  1.0000
  H   H4        1.0  0.50833  0.79820  0.24657  1.0000
  O   O5        1.0  0.41399  0.49370  0.24097  1.0000
  C   C13       1.0  0.33594  0.60552  0.23865  1.0000
  C   C14       1.0  0.39962  0.54598  0.24382  1.0000
  C   C15       1.0  0.33787  0.54426  0.23548  1.0000
  H   H5        1.0  0.29257  0.49690  0.22472  1.0000
  O   O6        1.0  0.07812  0.58509  0.25659  1.0000
  C   C16       1.0  0.26885  0.66508  0.24648  1.0000
  C   C17       1.0  0.14574  0.60037  0.25045  1.0000
  C   C18       1.0  0.20449  0.66160  0.25539  1.0000
  H   H6        1.0  0.20061  0.70510  0.26894  1.0000
  C   C19       1.0  0.62750  0.25805  0.25867  1.0000
  C   C20       1.0  0.73806  0.36712  0.25076  1.0000
  C   C21       1.0  0.62970  0.36742  0.26033  1.0000
  C   C22       1.0  0.59364  0.29516  0.26368  1.0000
  C   C23       1.0  0.69953  0.29451  0.25614  1.0000
  C   C24       1.0  0.70215  0.40318  0.24933  1.0000
  H   H7        1.0  0.72611  0.26539  0.25881  1.0000
  H   H8        1.0  0.73092  0.46015  0.24067  1.0000
  H   H9        1.0  0.53772  0.26708  0.27177  1.0000
  B   B4        1.0  0.48333  0.96271  0.75169  1.0000
  B   B5        1.0  0.04121  0.52500  0.74198  1.0000
  B   B6        1.0  0.48115  0.52048  0.75295  1.0000
  O   O7        1.0  0.08238  0.49555  0.73384  1.0000
  C   C25       1.0  0.27183  0.60843  0.73717  1.0000
  C   C26       1.0  0.14896  0.54813  0.73828  1.0000
  C   C27       1.0  0.20896  0.54705  0.73187  1.0000
  H   H10       1.0  0.20717  0.50015  0.72127  1.0000
  O   O8        1.0  0.51142  0.58938  0.76596  1.0000
  C   C28       1.0  0.39866  0.66802  0.75211  1.0000
  C   C29       1.0  0.45836  0.60415  0.75901  1.0000
  C   C30       1.0  0.46040  0.66510  0.76340  1.0000
  H   H11       1.0  0.50833  0.70886  0.77758  1.0000
  O   O9        1.0  0.41227  0.92401  0.74257  1.0000
  C   C31       1.0  0.33629  0.73403  0.74712  1.0000
  C   C32       1.0  0.39900  0.85683  0.74553  1.0000
  C   C33       1.0  0.33730  0.79809  0.74216  1.0000
  H   H12       1.0  0.29119  0.80210  0.73530  1.0000
  O   O10       1.0  0.51389  0.92083  0.75760  1.0000
  C   C34       1.0  0.39906  0.73271  0.75226  1.0000
  C   C35       1.0  0.46033  0.85506  0.75346  1.0000
  C   C36       1.0  0.46183  0.79476  0.75558  1.0000
  H   H13       1.0  0.51038  0.79568  0.75962  1.0000
  O   O11       1.0  0.41057  0.49272  0.73932  1.0000
  C   C37       1.0  0.33622  0.60771  0.73901  1.0000
  C   C38       1.0  0.39751  0.54579  0.74322  1.0000
  C   C39       1.0  0.33669  0.54617  0.73294  1.0000
  H   H14       1.0  0.29102  0.50040  0.71813  1.0000
  O   O12       1.0  0.08153  0.59477  0.75091  1.0000
  C   C40       1.0  0.27163  0.67012  0.74507  1.0000
  C   C41       1.0  0.14858  0.60811  0.74791  1.0000
  C   C42       1.0  0.20828  0.66890  0.75144  1.0000
  H   H15       1.0  0.20584  0.71357  0.76281  1.0000
  C   C43       1.0  0.63083  0.26091  0.75896  1.0000
  C   C44       1.0  0.74004  0.37224  0.74804  1.0000
  C   C45       1.0  0.62973  0.36831  0.76197  1.0000
  C   C46       1.0  0.59492  0.29512  0.77032  1.0000
  C   C47       1.0  0.70321  0.30023  0.74993  1.0000
  C   C48       1.0  0.70239  0.40635  0.74797  1.0000
  H   H16       1.0  0.73158  0.27427  0.74242  1.0000
  H   H17       1.0  0.73001  0.46370  0.73725  1.0000
  H   H18       1.0  0.53853  0.26357  0.78924  1.0000
  C  Sn1       1.0  0.90376  0.48969  0.32596  1.0000
  C   C49       1.0  0.94984  0.47008  0.29444  1.0000
  C  Sn2       1.0  0.92977  0.41930  0.22017  1.0000
  C  Sn3       1.0  0.86225  0.38749  0.17636  1.0000
  C   C50       1.0  0.81623  0.40711  0.20785  1.0000
  C  Sn4       1.0  0.83625  0.45788  0.28216  1.0000
  O  Te1       1.0  0.92494  0.54057  0.40031  1.0000
  O  Te2       1.0  0.97673  0.40054  0.18995  1.0000
  O  Te3       1.0  0.84111  0.33657  0.10196  1.0000
  O  Te4       1.0  0.78933  0.47666  0.31234  1.0000
  Mg  Mg1       1.0  0.92368  0.32867  0.08596  1.0000
  Mg  Mg2       1.0  0.84234  0.54854  0.41623  1.0000
  C  Sn5       1.0  0.48525  0.38957  0.29175  1.0000
  C   C51       1.0  0.51086  0.45579  0.31229  1.0000
  C  Sn6       1.0  0.58246  0.50435  0.29297  1.0000
  C  Sn7       1.0  0.62945  0.48638  0.25215  1.0000
  C   C52       1.0  0.60383  0.42021  0.23161  1.0000
  C  Sn8       1.0  0.53223  0.37160  0.25094  1.0000
  O  Te5       1.0  0.41347  0.34186  0.31165  1.0000
  O  Te6       1.0  0.60683  0.57021  0.31419  1.0000
  O  Te7       1.0  0.70128  0.53416  0.23226  1.0000
  O  Te8       1.0  0.50787  0.30579  0.22971  1.0000
  Mg  Mg3       1.0  0.70915  0.61726  0.27388  1.0000
  Mg  Mg4       1.0  0.40556  0.25872  0.26988  1.0000
  C  Sn9       1.0  0.59569  0.07873  0.30660  1.0000
  C   C53       1.0  0.52470  0.03425  0.30939  1.0000
  C  Sn10      1.0  0.48323  0.06704  0.26855  1.0000
  C  Sn11      1.0  0.51335  0.14596  0.22386  1.0000
  C   C54       1.0  0.58429  0.19040  0.22106  1.0000
  C  Sn12      1.0  0.62580  0.15764  0.26192  1.0000
  O  Te9       1.0  0.63616  0.04474  0.34788  1.0000
  O  Te10      1.0  0.41238  0.02140  0.27229  1.0000
  O  Te11      1.0  0.47281  0.17992  0.18257  1.0000
  O  Te12      1.0  0.69661  0.20324  0.25816  1.0000
  Mg  Mg5       1.0  0.37884  0.09402  0.20583  1.0000
  Mg  Mg6       1.0  0.73020  0.13069  0.32450  1.0000
  C  Sn13      1.0  0.90493  0.49872  0.82002  1.0000
  C   C55       1.0  0.95169  0.47898  0.79394  1.0000
  C  Sn14      1.0  0.93249  0.42666  0.72497  1.0000
  C  Sn15      1.0  0.86518  0.39341  0.68103  1.0000
  C   C56       1.0  0.81847  0.41317  0.70708  1.0000
  C  Sn16      1.0  0.83762  0.46548  0.77608  1.0000
  O  Te13      1.0  0.92524  0.55116  0.88913  1.0000
  O  Te14      1.0  0.98012  0.40779  0.70014  1.0000
  O  Te15      1.0  0.84490  0.34094  0.61188  1.0000
  O  Te16      1.0  0.79004  0.48436  0.80088  1.0000
  Mg  Mg7       1.0  0.92815  0.33353  0.60210  1.0000
  Mg  Mg8       1.0  0.84196  0.55864  0.89882  1.0000
  C  Sn17      1.0  0.48320  0.38834  0.78271  1.0000
  C   C57       1.0  0.50652  0.45228  0.81159  1.0000
  C  Sn18      1.0  0.57744  0.50024  0.80196  1.0000
  C  Sn19      1.0  0.62607  0.48398  0.76251  1.0000
  C   C58       1.0  0.60275  0.42009  0.73363  1.0000
  C  Sn20      1.0  0.53184  0.37209  0.74327  1.0000
  O  Te17      1.0  0.41207  0.34119  0.79300  1.0000
  O  Te18      1.0  0.59950  0.56381  0.83140  1.0000
  O  Te19      1.0  0.69725  0.53120  0.75225  1.0000
  O  Te20      1.0  0.50977  0.30856  0.71381  1.0000
  Mg  Mg9       1.0  0.70178  0.61095  0.80271  1.0000
  Mg  Mg10      1.0  0.40751  0.26141  0.74238  1.0000
  C  Sn21      1.0  0.62963  0.14081  0.72176  1.0000
  C   C59       1.0  0.60376  0.18690  0.71103  1.0000
  C  Sn22      1.0  0.53199  0.15650  0.73856  1.0000
  C  Sn23      1.0  0.48510  0.07839  0.77776  1.0000
  C   C60       1.0  0.51097  0.03235  0.78851  1.0000
  C  Sn24      1.0  0.58274  0.06270  0.76096  1.0000
  O  Te21      1.0  0.70158  0.17241  0.69376  1.0000
  O  Te22      1.0  0.50736  0.20371  0.72707  1.0000
  O  Te23      1.0  0.41310  0.04682  0.80576  1.0000
  O  Te24      1.0  0.60737  0.01554  0.77246  1.0000
  Mg  Mg11      1.0  0.40490  0.13417  0.77597  1.0000
  Mg  Mg12      1.0  0.70982  0.08500  0.72368  1.0000
