data_image0
_chemical_formula_structural       B6OC3HOC3HOC3HOC3HOC3HOC3HOC3HOC3HOC3HOC3HOC3HOC3HB6OC3HOC3HOC3HOC3HOC3HOC3HOC3HOC3HOC3HOC3HOC3HOC3HC2Sn2C2HTe2HMgC2Sn2C2HTe2HMgC2Sn2C2HTe2HMgC2Sn2C2HTe2HMgC2Sn2C2HTe2HMgC2Sn2C2HTe2HMgC2Sn2C2HTe2HMgC2Sn2C2HTe2HMgC2Sn2C2HTe2HMgC2Sn2C2HTe2HMgC2Sn2C2HTe2HMgC2Sn2C2HTe2HMg
_chemical_formula_sum              "B12 O24 C120 H48 Sn24 Te24 Mg12"
_cell_length_a       37.5385
_cell_length_b       37.8843
_cell_length_c       8.12998
_cell_angle_alpha    107.898
_cell_angle_beta     57.1894
_cell_angle_gamma    120.119

_symmetry_space_group_name_H-M    'P1'
_space_group_IT_number       1

loop_
  _space_group_symop_operation_xyz
  'x, y, z'

loop_
  _atom_site_type_symbol
  _atom_site_label
  _atom_site_symmetry_multiplicity
  _atom_site_fract_x
  _atom_site_fract_y
  _atom_site_fract_z
  _atom_site_occupancy
  B   B1        1.0  0.84274  0.41977  0.27277  1.0000
  B   B2        1.0  0.58262  0.42162  0.23434  1.0000
  B   B3        1.0  0.58028  0.15673  0.22874  1.0000
  B   B4        1.0  0.16212  0.58033  0.24014  1.0000
  B   B5        1.0  0.42598  0.58139  0.26133  1.0000
  B   B6        1.0  0.42488  0.84414  0.25708  1.0000
  O   O1        1.0  0.82009  0.37694  0.25517  1.0000
  C   C1        1.0  0.70719  0.33263  0.24419  1.0000
  C   C2        1.0  0.78017  0.36929  0.25282  1.0000
  C   C3        1.0  0.74519  0.33253  0.24251  1.0000
  H   H1        1.0  0.74707  0.30437  0.23449  1.0000
  O   O2        1.0  0.62499  0.43975  0.24148  1.0000
  C   C4        1.0  0.66851  0.37079  0.24633  1.0000
  C   C5        1.0  0.63205  0.40743  0.24323  1.0000
  C   C6        1.0  0.66831  0.40842  0.25014  1.0000
  H   H2        1.0  0.69591  0.43762  0.25687  1.0000
  O   O3        1.0  0.56278  0.18120  0.22162  1.0000
  C   C7        1.0  0.63148  0.29446  0.23219  1.0000
  C   C8        1.0  0.59488  0.22107  0.22666  1.0000
  C   C9        1.0  0.59423  0.25687  0.22503  1.0000
  H   H3        1.0  0.56582  0.25576  0.21666  1.0000
  O   O4        1.0  0.18581  0.62318  0.24773  1.0000
  C   C10       1.0  0.29926  0.66797  0.25288  1.0000
  C   C11       1.0  0.22580  0.63097  0.24930  1.0000
  C   C12       1.0  0.26131  0.66783  0.25325  1.0000
  H   H4        1.0  0.25987  0.69572  0.25394  1.0000
  O   O5        1.0  0.38255  0.56274  0.26296  1.0000
  C   C13       1.0  0.33835  0.63058  0.25288  1.0000
  C   C14       1.0  0.37559  0.59464  0.25544  1.0000
  C   C15       1.0  0.33846  0.59325  0.25431  1.0000
  H   H5        1.0  0.30994  0.56399  0.25685  1.0000
  O   O6        1.0  0.44370  0.82042  0.26051  1.0000
  C   C16       1.0  0.37596  0.70692  0.25609  1.0000
  C   C17       1.0  0.41170  0.78027  0.25925  1.0000
  C   C18       1.0  0.41345  0.74483  0.25820  1.0000
  H   H6        1.0  0.44276  0.74633  0.26068  1.0000
  O   O7        1.0  0.38192  0.81939  0.25559  1.0000
  C   C19       1.0  0.33784  0.70658  0.25496  1.0000
  C   C20       1.0  0.37444  0.77978  0.25709  1.0000
  C   C21       1.0  0.33775  0.74396  0.25381  1.0000
  H   H7        1.0  0.31019  0.74494  0.24715  1.0000
  O   O8        1.0  0.44564  0.62404  0.25235  1.0000
  C   C22       1.0  0.37626  0.66846  0.25466  1.0000
  C   C23       1.0  0.41331  0.63170  0.25182  1.0000
  C   C24       1.0  0.41425  0.66847  0.25330  1.0000
  H   H8        1.0  0.44335  0.69662  0.25652  1.0000
  O   O9        1.0  0.18687  0.56186  0.23847  1.0000
  C   C25       1.0  0.29956  0.63032  0.25108  1.0000
  C   C26       1.0  0.22632  0.59398  0.24479  1.0000
  C   C27       1.0  0.26211  0.59281  0.24645  1.0000
  H   H9        1.0  0.26115  0.56355  0.24338  1.0000
  O   O10       1.0  0.62259  0.18092  0.23705  1.0000
  C   C28       1.0  0.66877  0.29421  0.23779  1.0000
  C   C29       1.0  0.63109  0.22087  0.23456  1.0000
  C   C30       1.0  0.66789  0.25639  0.24009  1.0000
  H   H10       1.0  0.69470  0.25495  0.25066  1.0000
  O   O11       1.0  0.56381  0.37872  0.23144  1.0000
  C   C31       1.0  0.63144  0.33316  0.23550  1.0000
  C   C32       1.0  0.59539  0.37057  0.23545  1.0000
  C   C33       1.0  0.59428  0.33354  0.23123  1.0000
  H   H11       1.0  0.56565  0.30563  0.22238  1.0000
  O   O12       1.0  0.81745  0.43841  0.28065  1.0000
  C   C34       1.0  0.70669  0.37056  0.25130  1.0000
  C   C35       1.0  0.77894  0.40644  0.26590  1.0000
  C   C36       1.0  0.74340  0.40792  0.26348  1.0000
  H   H12       1.0  0.74390  0.43731  0.27258  1.0000
  B   B7        1.0  0.83684  0.41629  0.76681  1.0000
  B   B8        1.0  0.57791  0.42169  0.73436  1.0000
  B   B9        1.0  0.57301  0.15520  0.73137  1.0000
  B   B10       1.0  0.15593  0.57594  0.73642  1.0000
  B   B11       1.0  0.42096  0.58193  0.76632  1.0000
  B   B12       1.0  0.41767  0.84259  0.75617  1.0000
  O   O13       1.0  0.81330  0.37350  0.75266  1.0000
  C   C37       1.0  0.70073  0.33058  0.74191  1.0000
  C   C38       1.0  0.77362  0.36647  0.75065  1.0000
  C   C39       1.0  0.73842  0.32994  0.74033  1.0000
  H   H13       1.0  0.74003  0.30171  0.73310  1.0000
  O   O14       1.0  0.62019  0.43937  0.74160  1.0000
  C   C40       1.0  0.66236  0.36940  0.74746  1.0000
  C   C41       1.0  0.62665  0.40677  0.74473  1.0000
  C   C42       1.0  0.66264  0.40729  0.75172  1.0000
  H   H14       1.0  0.69054  0.43630  0.75822  1.0000
  O   O15       1.0  0.55453  0.17979  0.73284  1.0000
  C   C43       1.0  0.62433  0.29301  0.73604  1.0000
  C   C44       1.0  0.58731  0.21962  0.73233  1.0000
  C   C45       1.0  0.58626  0.25555  0.73522  1.0000
  H   H15       1.0  0.55691  0.25473  0.73579  1.0000
  O   O16       1.0  0.17840  0.61890  0.74757  1.0000
  C   C46       1.0  0.29210  0.66588  0.75465  1.0000
  C   C47       1.0  0.21865  0.62767  0.75024  1.0000
  C   C48       1.0  0.25376  0.66495  0.75475  1.0000
  H   H16       1.0  0.25197  0.69266  0.75514  1.0000
  O   O17       1.0  0.37753  0.56274  0.76703  1.0000
  C   C49       1.0  0.33201  0.62930  0.75556  1.0000
  C   C50       1.0  0.36989  0.59427  0.76029  1.0000
  C   C51       1.0  0.33276  0.59228  0.75674  1.0000
  H   H17       1.0  0.30487  0.56273  0.75640  1.0000
  O   O18       1.0  0.43649  0.81890  0.75957  1.0000
  C   C52       1.0  0.36874  0.70553  0.75825  1.0000
  C   C53       1.0  0.40442  0.77881  0.75915  1.0000
  C   C54       1.0  0.40610  0.74352  0.76002  1.0000
  H   H18       1.0  0.43535  0.74531  0.76418  1.0000
  O   O19       1.0  0.37464  0.81778  0.75476  1.0000
  C   C55       1.0  0.33045  0.70482  0.75696  1.0000
  C   C56       1.0  0.36704  0.77813  0.75727  1.0000
  C   C57       1.0  0.33015  0.74217  0.75629  1.0000
  H   H19       1.0  0.30213  0.74292  0.75234  1.0000
  O   O20       1.0  0.43977  0.62461  0.75980  1.0000
  C   C58       1.0  0.36948  0.66742  0.75817  1.0000
  C   C59       1.0  0.40710  0.63161  0.75860  1.0000
  C   C60       1.0  0.40759  0.66808  0.75872  1.0000
  H   H20       1.0  0.43655  0.69637  0.76157  1.0000
  O   O21       1.0  0.18156  0.55837  0.73354  1.0000
  C   C61       1.0  0.29306  0.62852  0.75292  1.0000
  C   C62       1.0  0.22017  0.59108  0.74405  1.0000
  C   C63       1.0  0.25618  0.59063  0.74697  1.0000
  H   H21       1.0  0.25575  0.56163  0.74398  1.0000
  O   O22       1.0  0.61639  0.17919  0.72987  1.0000
  C   C64       1.0  0.66214  0.29241  0.73590  1.0000
  C   C65       1.0  0.62460  0.21914  0.73014  1.0000
  C   C66       1.0  0.66172  0.25451  0.73318  1.0000
  H   H22       1.0  0.68920  0.25288  0.73773  1.0000
  O   O23       1.0  0.55873  0.37876  0.73077  1.0000
  C   C67       1.0  0.62489  0.33194  0.73789  1.0000
  C   C68       1.0  0.58980  0.37010  0.73638  1.0000
  C   C69       1.0  0.58819  0.33284  0.73211  1.0000
  H   H23       1.0  0.55968  0.30507  0.72118  1.0000
  O   O24       1.0  0.81225  0.43550  0.77289  1.0000
  C   C70       1.0  0.70050  0.36868  0.75043  1.0000
  C   C71       1.0  0.77314  0.40384  0.76166  1.0000
  C   C72       1.0  0.73768  0.40579  0.76078  1.0000
  H   H24       1.0  0.73873  0.43535  0.76884  1.0000
  C   C73       1.0  0.92469  0.42330  0.25675  1.0000
  C   C74       1.0  0.89376  0.43755  0.28532  1.0000
  C  Sn1       1.0  0.90726  0.47943  0.29015  1.0000
  C  Sn2       1.0  0.95258  0.50749  0.26583  1.0000
  C   C75       1.0  0.98327  0.49292  0.23719  1.0000
  C   C76       1.0  0.96940  0.45095  0.23267  1.0000
  H   H25       1.0  0.91397  0.39083  0.25314  1.0000
  O  Te1       1.0  0.87592  0.49315  0.31891  1.0000
  O  Te2       1.0  0.96698  0.54950  0.26996  1.0000
  H   H26       1.0  0.99337  0.43992  0.21042  1.0000
  Mg  Mg1       1.0  0.91173  0.55329  0.31334  1.0000
  C   C77       1.0  0.50875  0.42587  0.21618  1.0000
  C   C78       1.0  0.54989  0.43992  0.22570  1.0000
  C  Sn3       1.0  0.57360  0.48143  0.26308  1.0000
  C  Sn4       1.0  0.55572  0.50930  0.29145  1.0000
  C   C79       1.0  0.51452  0.49493  0.28177  1.0000
  C   C80       1.0  0.49107  0.45333  0.24421  1.0000
  H   H27       1.0  0.49059  0.39368  0.18722  1.0000
  O  Te3       1.0  0.61466  0.49496  0.27203  1.0000
  O  Te4       1.0  0.57871  0.55094  0.32910  1.0000
  H   H28       1.0  0.45921  0.44246  0.23697  1.0000
  Mg  Mg2       1.0  0.63342  0.55459  0.32725  1.0000
  C   C81       1.0  0.57588  0.07898  0.25175  1.0000
  C   C82       1.0  0.56453  0.10513  0.21814  1.0000
  C  Sn5       1.0  0.52413  0.08968  0.20085  1.0000
  C  Sn6       1.0  0.49461  0.04726  0.21763  1.0000
  C   C83       1.0  0.50624  0.02136  0.25140  1.0000
  C   C84       1.0  0.54676  0.03714  0.26840  1.0000
  H   H29       1.0  0.60721  0.09119  0.26502  1.0000
  O  Te5       1.0  0.51333  0.11623  0.16720  1.0000
  O  Te6       1.0  0.45401  0.03101  0.20102  1.0000
  H   H30       1.0  0.55552  0.01689  0.29455  1.0000
  Mg  Mg3       1.0  0.45420  0.07952  0.15524  1.0000
  C   C85       1.0  0.06086  0.56427  0.22036  1.0000
  C   C86       1.0  0.03325  0.52218  0.22883  1.0000
  C  Sn7       1.0  0.04581  0.49620  0.25597  1.0000
  C  Sn8       1.0  0.08679  0.51275  0.27498  1.0000
  C   C87       1.0  0.11415  0.55490  0.26644  1.0000
  C   C88       1.0  0.10127  0.58062  0.23918  1.0000
  H   H31       1.0  0.05088  0.58417  0.19938  1.0000
  O  Te7       1.0  0.01784  0.45422  0.26401  1.0000
  O  Te8       1.0  0.10015  0.48748  0.30230  1.0000
  H   H32       1.0  0.12263  0.61321  0.23276  1.0000
  Mg  Mg4       1.0  0.05062  0.43229  0.30338  1.0000
  C   C89       1.0  0.50427  0.57825  0.24716  1.0000
  C   C90       1.0  0.46064  0.56394  0.25934  1.0000
  C  Sn9       1.0  0.42973  0.52272  0.28893  1.0000
  C  Sn10      1.0  0.44284  0.49541  0.30665  1.0000
  C   C91       1.0  0.48656  0.51004  0.29439  1.0000
  C   C92       1.0  0.51723  0.55134  0.26469  1.0000
  H   H33       1.0  0.52799  0.61021  0.22429  1.0000
  O  Te9       1.0  0.38627  0.50893  0.30068  1.0000
  O  Te10      1.0  0.41262  0.45408  0.33636  1.0000
  H   H34       1.0  0.55100  0.56242  0.25540  1.0000
  Mg  Mg5       1.0  0.35720  0.44989  0.34224  1.0000
  C   C93       1.0  0.42432  0.92144  0.26167  1.0000
  C   C94       1.0  0.44229  0.89513  0.24413  1.0000
  C  Sn11      1.0  0.48590  0.91091  0.23464  1.0000
  C  Sn12      1.0  0.51190  0.95384  0.24295  1.0000
  C   C95       1.0  0.49359  0.97990  0.26063  1.0000
  C   C96       1.0  0.44993  0.96379  0.26995  1.0000
  H   H35       1.0  0.39052  0.90898  0.26898  1.0000
  O  Te11      1.0  0.50335  0.88418  0.21706  1.0000
  O  Te12      1.0  0.55556  0.97042  0.23384  1.0000
  H   H36       1.0  0.43601  0.98417  0.28365  1.0000
  Mg  Mg6       1.0  0.56451  0.92149  0.21009  1.0000
  C   C97       1.0  0.94283  0.50306  0.73302  1.0000
  C   C98       1.0  0.96731  0.48946  0.76228  1.0000
  C  Sn13      1.0  0.94975  0.44821  0.79046  1.0000
  C  Sn14      1.0  0.90690  0.42012  0.78920  1.0000
  C   C99       1.0  0.88270  0.43402  0.75967  1.0000
  C   C100      1.0  0.90058  0.47537  0.73168  1.0000
  H   H37       1.0  0.95667  0.53505  0.71125  1.0000
  O  Te13      1.0  0.97464  0.43514  0.81957  1.0000
  O  Te14      1.0  0.88857  0.37872  0.81693  1.0000
  H   H38       1.0  0.88164  0.48589  0.70890  1.0000
  Mg  Mg7       1.0  0.93536  0.37570  0.85089  1.0000
  C   C101      1.0  0.55938  0.51053  0.79301  1.0000
  C   C102      1.0  0.52176  0.49728  0.75876  1.0000
  C  Sn15      1.0  0.49865  0.45593  0.71668  1.0000
  C  Sn16      1.0  0.51355  0.42738  0.70890  1.0000
  C   C103      1.0  0.55120  0.44094  0.74353  1.0000
  C   C104      1.0  0.57409  0.48239  0.78544  1.0000
  H   H39       1.0  0.57708  0.54259  0.82555  1.0000
  O  Te15      1.0  0.46113  0.44322  0.68277  1.0000
  O  Te16      1.0  0.49106  0.38588  0.66724  1.0000
  H   H40       1.0  0.60320  0.49263  0.81208  1.0000
  Mg  Mg8       1.0  0.44170  0.38346  0.63161  1.0000
  C   C105      1.0  0.49535  0.07565  0.74058  1.0000
  C   C106      1.0  0.53750  0.10355  0.74182  1.0000
  C  Sn17      1.0  0.56708  0.08970  0.72957  1.0000
  C  Sn18      1.0  0.55415  0.04711  0.71580  1.0000
  C   C107      1.0  0.51192  0.01945  0.71454  1.0000
  C   C108      1.0  0.48257  0.03364  0.72692  1.0000
  H   H41       1.0  0.47265  0.08663  0.75006  1.0000
  O  Te17      1.0  0.60906  0.11799  0.73107  1.0000
  O  Te18      1.0  0.58307  0.03243  0.70331  1.0000
  H   H42       1.0  0.44995  0.01204  0.72584  1.0000
  Mg  Mg9       1.0  0.63671  0.08301  0.71094  1.0000
  C   C109      1.0  0.05064  0.55974  0.75383  1.0000
  C   C110      1.0  0.02463  0.51751  0.74661  1.0000
  C  Sn19      1.0  0.04075  0.49081  0.74141  1.0000
  C  Sn20      1.0  0.08372  0.50677  0.74354  1.0000
  C   C111      1.0  0.10948  0.54906  0.75092  1.0000
  C   C112      1.0  0.09302  0.57551  0.75601  1.0000
  H   H43       1.0  0.03791  0.58020  0.75788  1.0000
  O  Te19      1.0  0.01433  0.44870  0.73414  1.0000
  O  Te20      1.0  0.10064  0.48077  0.73853  1.0000
  H   H44       1.0  0.11316  0.60820  0.76173  1.0000
  Mg  Mg10      1.0  0.05205  0.42568  0.72925  1.0000
  C   C113      1.0  0.50075  0.57870  0.73986  1.0000
  C   C114      1.0  0.45662  0.56453  0.75724  1.0000
  C  Sn21      1.0  0.42534  0.52351  0.79156  1.0000
  C  Sn22      1.0  0.43858  0.49624  0.80878  1.0000
  C   C115      1.0  0.48280  0.51072  0.79131  1.0000
  C   C116      1.0  0.51383  0.55183  0.75691  1.0000
  H   H45       1.0  0.52476  0.61051  0.71334  1.0000
  O  Te21      1.0  0.38139  0.50985  0.80846  1.0000
  O  Te22      1.0  0.40799  0.45509  0.84316  1.0000
  H   H46       1.0  0.54799  0.56280  0.74358  1.0000
  Mg  Mg11      1.0  0.35195  0.45104  0.85516  1.0000
  C   C117      1.0  0.50396  0.94551  0.76168  1.0000
  C   C118      1.0  0.49113  0.97142  0.73559  1.0000
  C  Sn23      1.0  0.44988  0.95560  0.72447  1.0000
  C  Sn24      1.0  0.42100  0.91304  0.73987  1.0000
  C   C119      1.0  0.43413  0.88738  0.76610  1.0000
  C   C120      1.0  0.47548  0.90353  0.77696  1.0000
  H   H47       1.0  0.53594  0.95801  0.77020  1.0000
  O  Te23      1.0  0.43760  0.98191  0.69830  1.0000
  O  Te24      1.0  0.37958  0.89642  0.72932  1.0000
  H   H48       1.0  0.48539  0.88347  0.79729  1.0000
  Mg  Mg12      1.0  0.37780  0.94472  0.69271  1.0000
