data_image0
_chemical_formula_structural       B3OC3HOC3HOC5H3OC5H3OC3HOC3HC8H3B3OC5H3OC3HOC5H3OC5H3OC3HOC5H3C10H3SnCSn2CSnTe4Mg2SnCSn2CSnTe4Mg2SnCSn2CSnTe4Mg2
_chemical_formula_sum              "B6 O12 C72 H30 Sn12 Te12 Mg6"
_cell_length_a       22.5722
_cell_length_b       22.6258
_cell_length_c       8.03509
_cell_angle_alpha    62.3584
_cell_angle_beta     94.8504
_cell_angle_gamma    120.007

_symmetry_space_group_name_H-M    'P1'
_space_group_IT_number       1

loop_
  _space_group_symop_operation_xyz
  'x, y, z'

loop_
  _atom_site_type_symbol
  _atom_site_label
  _atom_site_symmetry_multiplicity
  _atom_site_fract_x
  _atom_site_fract_y
  _atom_site_fract_z
  _atom_site_occupancy
  B   B1        1.0  0.47609  0.95963  0.25193  1.0000
  B   B2        1.0  0.03931  0.51672  0.24112  1.0000
  B   B3        1.0  0.48495  0.52338  0.25154  1.0000
  O   O1        1.0  0.08195  0.48980  0.22647  1.0000
  C   C1        1.0  0.27074  0.60463  0.23641  1.0000
  C   C2        1.0  0.14796  0.54250  0.23440  1.0000
  C   C3        1.0  0.20889  0.54314  0.22747  1.0000
  H   H1        1.0  0.20884  0.49779  0.21305  1.0000
  O   O2        1.0  0.51425  0.59283  0.26144  1.0000
  C   C4        1.0  0.39785  0.66736  0.24846  1.0000
  C   C5        1.0  0.46007  0.60592  0.25590  1.0000
  C   C6        1.0  0.46064  0.66651  0.25816  1.0000
  H   H2        1.0  0.50823  0.71181  0.26887  1.0000
  O   O3        1.0  0.40463  0.91864  0.24888  1.0000
  C   C7        1.0  0.47996  0.07323  0.26374  1.0000
  C   C8        1.0  0.51609  0.14404  0.26454  1.0000
  C   C9        1.0  0.33271  0.73010  0.24747  1.0000
  C   C10       1.0  0.39289  0.85267  0.24754  1.0000
  C   C11       1.0  0.33178  0.79261  0.24639  1.0000
  H   H3        1.0  0.28440  0.79387  0.24561  1.0000
  H   H4        1.0  0.42390  0.04505  0.26999  1.0000
  H   H5        1.0  0.48703  0.16937  0.27258  1.0000
  O   O4        1.0  0.50826  0.92008  0.25105  1.0000
  C   C12       1.0  0.58694  0.07513  0.24934  1.0000
  C   C13       1.0  0.62297  0.14598  0.24933  1.0000
  C   C14       1.0  0.39660  0.73132  0.24783  1.0000
  C   C15       1.0  0.45546  0.85368  0.24851  1.0000
  C   C16       1.0  0.45878  0.79490  0.24741  1.0000
  H   H6        1.0  0.50833  0.79820  0.24657  1.0000
  H   H7        1.0  0.61520  0.04895  0.24118  1.0000
  H   H8        1.0  0.67898  0.17350  0.24117  1.0000
  O   O5        1.0  0.41399  0.49370  0.24097  1.0000
  C   C17       1.0  0.33594  0.60552  0.23865  1.0000
  C   C18       1.0  0.39962  0.54598  0.24382  1.0000
  C   C19       1.0  0.33787  0.54426  0.23548  1.0000
  H   H9        1.0  0.29257  0.49690  0.22472  1.0000
  O   O6        1.0  0.07812  0.58509  0.25659  1.0000
  C   C20       1.0  0.26885  0.66508  0.24648  1.0000
  C   C21       1.0  0.14574  0.60037  0.25045  1.0000
  C   C22       1.0  0.20449  0.66160  0.25539  1.0000
  H   H10       1.0  0.20061  0.70510  0.26894  1.0000
  C   C23       1.0  0.62750  0.25805  0.25867  1.0000
  C   C24       1.0  0.51452  0.03692  0.25638  1.0000
  C   C25       1.0  0.58861  0.18231  0.25838  1.0000
  C   C26       1.0  0.73806  0.36712  0.25076  1.0000
  C   C27       1.0  0.62970  0.36742  0.26033  1.0000
  C   C28       1.0  0.59364  0.29516  0.26368  1.0000
  C   C29       1.0  0.69953  0.29451  0.25614  1.0000
  C   C30       1.0  0.70215  0.40318  0.24933  1.0000
  H   H11       1.0  0.72611  0.26539  0.25881  1.0000
  H   H12       1.0  0.73092  0.46015  0.24067  1.0000
  H   H13       1.0  0.53772  0.26708  0.27177  1.0000
  B   B4        1.0  0.48333  0.96271  0.75169  1.0000
  B   B5        1.0  0.04121  0.52500  0.74198  1.0000
  B   B6        1.0  0.48115  0.52048  0.75295  1.0000
  O   O7        1.0  0.08238  0.49555  0.73384  1.0000
  C   C31       1.0  0.92661  0.41663  0.72941  1.0000
  C   C32       1.0  0.85541  0.38059  0.73015  1.0000
  C   C33       1.0  0.27183  0.60843  0.73717  1.0000
  C   C34       1.0  0.14896  0.54813  0.73828  1.0000
  C   C35       1.0  0.20896  0.54705  0.73187  1.0000
  H   H14       1.0  0.20717  0.50015  0.72127  1.0000
  H   H15       1.0  0.95498  0.39158  0.71442  1.0000
  H   H16       1.0  0.83075  0.32897  0.71280  1.0000
  O   O8        1.0  0.51142  0.58938  0.76596  1.0000
  C   C36       1.0  0.39866  0.66802  0.75211  1.0000
  C   C37       1.0  0.45836  0.60415  0.75901  1.0000
  C   C38       1.0  0.46040  0.66510  0.76340  1.0000
  H   H17       1.0  0.50833  0.70886  0.77758  1.0000
  O   O9        1.0  0.41227  0.92401  0.74257  1.0000
  C   C39       1.0  0.48815  0.08036  0.73799  1.0000
  C   C40       1.0  0.52335  0.15154  0.73683  1.0000
  C   C41       1.0  0.33629  0.73403  0.74712  1.0000
  C   C42       1.0  0.39900  0.85683  0.74553  1.0000
  C   C43       1.0  0.33730  0.79809  0.74216  1.0000
  H   H18       1.0  0.29119  0.80210  0.73530  1.0000
  H   H19       1.0  0.43397  0.05587  0.72105  1.0000
  H   H20       1.0  0.49589  0.18173  0.71686  1.0000
  O   O10       1.0  0.51389  0.92083  0.75760  1.0000
  C   C44       1.0  0.59182  0.07358  0.77681  1.0000
  C   C45       1.0  0.62662  0.14411  0.77858  1.0000
  C   C46       1.0  0.39906  0.73271  0.75226  1.0000
  C   C47       1.0  0.46033  0.85506  0.75346  1.0000
  C   C48       1.0  0.46183  0.79476  0.75558  1.0000
  H   H21       1.0  0.51038  0.79568  0.75962  1.0000
  H   H22       1.0  0.61909  0.04353  0.79240  1.0000
  H   H23       1.0  0.68029  0.16678  0.79891  1.0000
  O   O11       1.0  0.41057  0.49272  0.73932  1.0000
  C   C49       1.0  0.33622  0.60771  0.73901  1.0000
  C   C50       1.0  0.39751  0.54579  0.74322  1.0000
  C   C51       1.0  0.33669  0.54617  0.73294  1.0000
  H   H24       1.0  0.29102  0.50040  0.71813  1.0000
  O   O12       1.0  0.08153  0.59477  0.75091  1.0000
  C   C52       1.0  0.92378  0.51608  0.75982  1.0000
  C   C53       1.0  0.85233  0.47935  0.76324  1.0000
  C   C54       1.0  0.27163  0.67012  0.74507  1.0000
  C   C55       1.0  0.14858  0.60811  0.74791  1.0000
  C   C56       1.0  0.20828  0.66890  0.75144  1.0000
  H   H25       1.0  0.20584  0.71357  0.76281  1.0000
  H   H26       1.0  0.94964  0.56832  0.77500  1.0000
  H   H27       1.0  0.82439  0.50377  0.78367  1.0000
  C   C57       1.0  0.63083  0.26091  0.75896  1.0000
  C   C58       1.0  0.52163  0.03982  0.75693  1.0000
  C   C59       1.0  0.59346  0.18515  0.75890  1.0000
  C   C60       1.0  0.74004  0.37224  0.74804  1.0000
  C   C61       1.0  0.96275  0.48562  0.74269  1.0000
  C   C62       1.0  0.81614  0.41092  0.74691  1.0000
  C   C63       1.0  0.62973  0.36831  0.76197  1.0000
  C   C64       1.0  0.59492  0.29512  0.77032  1.0000
  C   C65       1.0  0.70321  0.30023  0.74993  1.0000
  C   C66       1.0  0.70239  0.40635  0.74797  1.0000
  H   H28       1.0  0.73158  0.27427  0.74242  1.0000
  H   H29       1.0  0.73001  0.46370  0.73725  1.0000
  H   H30       1.0  0.53853  0.26357  0.78924  1.0000
  C  Sn1       1.0  0.61135  0.46684  0.85550  1.0000
  C   C67       1.0  0.58813  0.40310  0.82586  1.0000
  C  Sn2       1.0  0.53061  0.38026  0.73892  1.0000
  C  Sn3       1.0  0.49558  0.42203  0.68027  1.0000
  C   C68       1.0  0.51880  0.48573  0.70989  1.0000
  C  Sn4       1.0  0.57632  0.50861  0.79685  1.0000
  O  Te1       1.0  0.66896  0.48864  0.94268  1.0000
  O  Te2       1.0  0.50836  0.31632  0.71086  1.0000
  O  Te3       1.0  0.43792  0.40017  0.59304  1.0000
  O  Te4       1.0  0.59858  0.57251  0.82488  1.0000
  Mg  Mg1       1.0  0.42739  0.30917  0.58584  1.0000
  Mg  Mg2       1.0  0.67956  0.57974  0.94980  1.0000
  C  Sn5       1.0  0.91298  0.41226  0.16521  1.0000
  C   C69       1.0  0.95629  0.47617  0.19357  1.0000
  C  Sn6       1.0  0.92769  0.50282  0.26956  1.0000
  C  Sn7       1.0  0.85425  0.46478  0.31833  1.0000
  C   C70       1.0  0.81099  0.40090  0.28999  1.0000
  C  Sn8       1.0  0.83955  0.37421  0.21398  1.0000
  O  Te5       1.0  0.94272  0.38660  0.08906  1.0000
  O  Te6       1.0  0.97205  0.56685  0.29656  1.0000
  O  Te7       1.0  0.82454  0.49049  0.39453  1.0000
  O  Te8       1.0  0.79523  0.31022  0.18701  1.0000
  Mg  Mg3       1.0  0.90665  0.58001  0.40473  1.0000
  Mg  Mg4       1.0  0.86057  0.29698  0.07895  1.0000
  C  Sn9       1.0  0.61609  0.47039  0.34695  1.0000
  C   C71       1.0  0.59070  0.40462  0.32459  1.0000
  C  Sn10      1.0  0.53108  0.37982  0.24625  1.0000
  C  Sn11      1.0  0.49612  0.42166  0.18895  1.0000
  C   C72       1.0  0.52152  0.48739  0.21129  1.0000
  C  Sn12      1.0  0.58113  0.51223  0.28966  1.0000
  O  Te9       1.0  0.67578  0.49414  0.42559  1.0000
  O  Te10      1.0  0.50667  0.31388  0.22537  1.0000
  O  Te11      1.0  0.43639  0.39785  0.11027  1.0000
  O  Te12      1.0  0.60555  0.57814  0.31051  1.0000
  Mg  Mg5       1.0  0.42336  0.30452  0.11071  1.0000
  Mg  Mg6       1.0  0.68887  0.58757  0.42506  1.0000
