data_image0
_chemical_formula_structural       OBOBCHC2HC2HCHOBOBCHC2HC2HCHOBCHC2HC2HCHOBCHC2HC2HCHOBOBCHC2HC2HCHOBCHC2HC2HCHOBCHC2HC2HCHOBOBOBCHC2HC2HCHOBCHC2HC2HCHOBCHC2HC2HCHOBOBCHC2HC2HCHOBOBOBCHC2HC2HCHOBCHC2HC2HCHOBOBCHC2HC2HCHOBOBOBOBOBOBOBOBCHC2HC2HCHOBOBOBCHC2HC2HCHOBCHC2HC2HCHOBCHC2HC2HCHOBCHC2HC2HCHOBOBOBCHC2HC2HCHOBCHC2HC2HCHOBOBOBOBOBCHC2HC2HCHOBCHC2HC2HCHOBCHC2HC2HCHC12SnCSn2CSnTe4Mg2SnCSn2CSnTe4Mg2SnCSn2CSnTe4Mg2SnCSn2CSnTe4Mg2SnCSn2CSnTe4Mg2SnCSn2CSnTe4Mg2SnCSn2CSnTe4Mg2SnCSn2CSnTe4Mg2SnCSn2CSnTe4Mg2SnCSn2CSnTe4Mg2SnCSn2CSnTe4Mg2SnCSn2CSnTe4Mg2SnCSn2CSnTe4Mg2SnCSn2CSnTe4Mg2SnCSn2CSnTe4Mg2SnCSn2CSnTe4Mg2SnCSn2CSnTe4Mg2SnCSn2CSnTe4Mg2SnCSn2CSnTe4Mg2SnCSn2CSnTe4Mg2SnCSn2CSnTe4Mg2SnCSn2CSnTe4Mg2SnCSn2CSnTe4Mg2SnCSn2CSnTe4Mg2
_chemical_formula_sum              "O48 B48 C204 H96 Sn96 Te96 Mg48"
_cell_length_a       27.1793
_cell_length_b       27.1479
_cell_length_c       27.1311
_cell_angle_alpha    89.9687
_cell_angle_beta     90
_cell_angle_gamma    90.1412

_symmetry_space_group_name_H-M    'P1'
_space_group_IT_number       1

loop_
  _space_group_symop_operation_xyz
  'x, y, z'

loop_
  _atom_site_type_symbol
  _atom_site_label
  _atom_site_symmetry_multiplicity
  _atom_site_fract_x
  _atom_site_fract_y
  _atom_site_fract_z
  _atom_site_occupancy
  O   O1        1.0  0.82780  0.74488  0.30238  1.0000
  B   B1        1.0  0.83342  0.71515  0.26091  1.0000
  O   O2        1.0  0.32483  0.24493  0.80324  1.0000
  B   B2        1.0  0.33318  0.21308  0.76399  1.0000
  C   C1        1.0  0.40304  0.26704  0.72848  1.0000
  H   H1        1.0  0.39356  0.29517  0.75543  1.0000
  C   C2        1.0  0.37614  0.22258  0.72774  1.0000
  C   C3        1.0  0.42818  0.19516  0.65967  1.0000
  H   H2        1.0  0.43812  0.16648  0.63365  1.0000
  C   C4        1.0  0.45418  0.23976  0.65993  1.0000
  C   C5        1.0  0.38967  0.18691  0.69283  1.0000
  H   H3        1.0  0.36993  0.15199  0.69193  1.0000
  C   C6        1.0  0.44127  0.27542  0.69535  1.0000
  H   H4        1.0  0.46185  0.30983  0.69695  1.0000
  O   O3        1.0  0.67104  0.25739  0.80238  1.0000
  B   B3        1.0  0.66450  0.28884  0.76226  1.0000
  O   O4        1.0  0.17384  0.75752  0.30241  1.0000
  B   B4        1.0  0.16698  0.78869  0.26219  1.0000
  C   C7        1.0  0.09448  0.73681  0.22930  1.0000
  H   H5        1.0  0.10237  0.70981  0.25790  1.0000
  C   C8        1.0  0.12379  0.77963  0.22591  1.0000
  C   C9        1.0  0.07385  0.80490  0.15523  1.0000
  H   H6        1.0  0.06604  0.83204  0.12686  1.0000
  C   C10       1.0  0.04493  0.76225  0.15877  1.0000
  C   C11       1.0  0.11255  0.81334  0.18820  1.0000
  H   H7        1.0  0.13434  0.84688  0.18480  1.0000
  C   C12       1.0  0.05583  0.72849  0.19669  1.0000
  H   H8        1.0  0.03325  0.69555  0.20058  1.0000
  O   O5        1.0  0.17437  0.24474  0.19913  1.0000
  B   B5        1.0  0.16632  0.21246  0.23820  1.0000
  C   C13       1.0  0.09588  0.26551  0.27195  1.0000
  H   H9        1.0  0.10538  0.29303  0.24433  1.0000
  C   C14       1.0  0.12319  0.22150  0.27412  1.0000
  C   C15       1.0  0.07081  0.19481  0.34221  1.0000
  H   H10       1.0  0.06071  0.16655  0.36868  1.0000
  C   C16       1.0  0.04442  0.23903  0.34055  1.0000
  C   C17       1.0  0.10974  0.18636  0.30966  1.0000
  H   H11       1.0  0.12978  0.15173  0.31159  1.0000
  C   C18       1.0  0.05721  0.27404  0.30438  1.0000
  H   H12       1.0  0.03608  0.30791  0.30157  1.0000
  O   O6        1.0  0.67365  0.74275  0.69708  1.0000
  B   B6        1.0  0.66760  0.71439  0.73937  1.0000
  C   C19       1.0  0.58965  0.76183  0.76647  1.0000
  H   H13       1.0  0.59430  0.78579  0.73459  1.0000
  C   C20       1.0  0.62365  0.72355  0.77461  1.0000
  C   C21       1.0  0.57641  0.70062  0.84795  1.0000
  H   H14       1.0  0.57157  0.67599  0.87912  1.0000
  C   C22       1.0  0.54278  0.73883  0.83981  1.0000
  C   C23       1.0  0.61612  0.69334  0.81602  1.0000
  H   H15       1.0  0.64177  0.66344  0.82314  1.0000
  C   C24       1.0  0.55017  0.76928  0.79835  1.0000
  H   H16       1.0  0.52422  0.79882  0.79091  1.0000
  O   O7        1.0  0.32136  0.75037  0.70022  1.0000
  B   B7        1.0  0.32834  0.78173  0.74024  1.0000
  O   O8        1.0  0.82901  0.25693  0.19564  1.0000
  B   B8        1.0  0.83632  0.28820  0.23565  1.0000
  C   C25       1.0  0.90945  0.23747  0.26764  1.0000
  H   H17       1.0  0.90317  0.21191  0.23738  1.0000
  C   C26       1.0  0.87880  0.27897  0.27239  1.0000
  C   C27       1.0  0.92669  0.30334  0.34467  1.0000
  H   H18       1.0  0.93349  0.32975  0.37396  1.0000
  C   C28       1.0  0.95681  0.26182  0.33993  1.0000
  C   C29       1.0  0.88818  0.31155  0.31152  1.0000
  H   H19       1.0  0.86517  0.34405  0.31575  1.0000
  C   C30       1.0  0.94763  0.22910  0.30069  1.0000
  H   H20       1.0  0.97132  0.19723  0.29589  1.0000
  O   O9        1.0  0.29574  0.82054  0.74754  1.0000
  B   B9        1.0  0.25842  0.83029  0.71372  1.0000
  C   C31       1.0  0.22727  0.90441  0.76425  1.0000
  H   H21       1.0  0.25522  0.89595  0.79169  1.0000
  C   C32       1.0  0.22367  0.87482  0.72169  1.0000
  C   C33       1.0  0.15596  0.92734  0.69422  1.0000
  H   H22       1.0  0.12891  0.93615  0.66612  1.0000
  C   C34       1.0  0.15888  0.95581  0.73721  1.0000
  C   C35       1.0  0.18765  0.88751  0.68678  1.0000
  H   H23       1.0  0.18451  0.86593  0.65311  1.0000
  C   C36       1.0  0.19581  0.94410  0.77170  1.0000
  H   H24       1.0  0.19972  0.96670  0.80458  1.0000
  O   O10       1.0  0.80446  0.32757  0.24280  1.0000
  B   B10       1.0  0.76556  0.33578  0.21056  1.0000
  C   C37       1.0  0.72914  0.40410  0.26549  1.0000
  H   H25       1.0  0.75559  0.39385  0.29383  1.0000
  C   C38       1.0  0.72918  0.37850  0.22027  1.0000
  C   C39       1.0  0.66152  0.43108  0.19317  1.0000
  H   H26       1.0  0.63581  0.44167  0.16443  1.0000
  C   C40       1.0  0.66113  0.45582  0.23846  1.0000
  C   C41       1.0  0.69481  0.39291  0.18441  1.0000
  H   H27       1.0  0.69442  0.37410  0.14899  1.0000
  C   C42       1.0  0.69589  0.44196  0.27438  1.0000
  H   H28       1.0  0.69674  0.46148  0.30942  1.0000
  O   O11       1.0  0.80007  0.67709  0.25247  1.0000
  B   B11       1.0  0.76171  0.66798  0.28528  1.0000
  O   O12       1.0  0.30224  0.17270  0.75725  1.0000
  B   B12       1.0  0.26324  0.16415  0.78936  1.0000
  O   O13       1.0  0.19753  0.17244  0.24496  1.0000
  B   B13       1.0  0.23637  0.16429  0.21259  1.0000
  C   C43       1.0  0.26997  0.09220  0.26429  1.0000
  H   H29       1.0  0.24098  0.09916  0.29107  1.0000
  C   C44       1.0  0.27271  0.12152  0.22150  1.0000
  C   C45       1.0  0.34417  0.07354  0.19582  1.0000
  H   H30       1.0  0.37230  0.06621  0.16839  1.0000
  C   C46       1.0  0.34162  0.04484  0.23865  1.0000
  C   C47       1.0  0.31033  0.11131  0.18754  1.0000
  H   H31       1.0  0.31296  0.13321  0.15401  1.0000
  C   C48       1.0  0.30363  0.05462  0.27257  1.0000
  H   H32       1.0  0.30032  0.03179  0.30540  1.0000
  O   O14       1.0  0.70156  0.67740  0.74986  1.0000
  B   B14       1.0  0.74005  0.66783  0.71741  1.0000
  C   C49       1.0  0.77333  0.59523  0.76922  1.0000
  H   H33       1.0  0.74624  0.60405  0.79741  1.0000
  C   C50       1.0  0.77538  0.62405  0.72606  1.0000
  C   C51       1.0  0.84258  0.57182  0.69714  1.0000
  H   H34       1.0  0.86878  0.56263  0.66839  1.0000
  C   C52       1.0  0.84112  0.54398  0.74057  1.0000
  C   C53       1.0  0.81043  0.61132  0.69021  1.0000
  H   H35       1.0  0.81238  0.63266  0.65629  1.0000
  C   C54       1.0  0.80539  0.55595  0.77624  1.0000
  H   H36       1.0  0.80287  0.53398  0.80969  1.0000
  O   O15       1.0  0.69755  0.32747  0.75501  1.0000
  B   B15       1.0  0.73701  0.33443  0.78711  1.0000
  C   C55       1.0  0.77248  0.40531  0.73451  1.0000
  H   H37       1.0  0.74502  0.39679  0.70655  1.0000
  C   C56       1.0  0.77411  0.37697  0.77807  1.0000
  C   C57       1.0  0.84297  0.42829  0.80568  1.0000
  H   H38       1.0  0.86971  0.43734  0.83405  1.0000
  C   C58       1.0  0.84140  0.45597  0.76212  1.0000
  C   C59       1.0  0.81002  0.38934  0.81329  1.0000
  H   H39       1.0  0.81189  0.36834  0.84745  1.0000
  C   C60       1.0  0.80525  0.44402  0.72686  1.0000
  H   H40       1.0  0.80288  0.46586  0.69332  1.0000
  O   O16       1.0  0.19982  0.82744  0.25465  1.0000
  B   B16       1.0  0.23984  0.83437  0.28594  1.0000
  O   O17       1.0  0.74287  0.30278  0.82715  1.0000
  B   B17       1.0  0.71046  0.26361  0.83454  1.0000
  C   C61       1.0  0.76106  0.23189  0.90807  1.0000
  H   H41       1.0  0.78648  0.26218  0.90128  1.0000
  C   C62       1.0  0.71926  0.22707  0.87765  1.0000
  C   C63       1.0  0.69568  0.15499  0.92648  1.0000
  H   H42       1.0  0.66924  0.12582  0.93380  1.0000
  C   C64       1.0  0.73770  0.15951  0.95611  1.0000
  C   C65       1.0  0.68682  0.18798  0.88788  1.0000
  H   H43       1.0  0.65396  0.18339  0.86539  1.0000
  C   C66       1.0  0.77007  0.19900  0.94642  1.0000
  H   H44       1.0  0.80222  0.20424  0.96976  1.0000
  O   O18       1.0  0.24711  0.80213  0.32513  1.0000
  B   B18       1.0  0.21449  0.76326  0.33318  1.0000
  O   O19       1.0  0.25279  0.79966  0.67289  1.0000
  B   B19       1.0  0.28373  0.75919  0.66654  1.0000
  O   O20       1.0  0.75925  0.30480  0.17014  1.0000
  B   B20       1.0  0.78954  0.26396  0.16381  1.0000
  C   C67       1.0  0.73614  0.23001  0.09304  1.0000
  H   H45       1.0  0.70999  0.25946  0.10026  1.0000
  C   C68       1.0  0.77895  0.22640  0.12217  1.0000
  C   C69       1.0  0.80283  0.15469  0.07327  1.0000
  H   H46       1.0  0.82956  0.12607  0.06543  1.0000
  C   C70       1.0  0.76034  0.15862  0.04433  1.0000
  C   C71       1.0  0.81175  0.18785  0.11169  1.0000
  H   H47       1.0  0.84511  0.18405  0.13359  1.0000
  C   C72       1.0  0.72707  0.19685  0.05502  1.0000
  H   H48       1.0  0.69423  0.20084  0.03245  1.0000
  O   O21       1.0  0.24297  0.19560  0.17250  1.0000
  B   B21       1.0  0.21277  0.23646  0.16616  1.0000
  C   C73       1.0  0.26564  0.27115  0.09511  1.0000
  H   H49       1.0  0.29343  0.24366  0.10380  1.0000
  C   C74       1.0  0.22198  0.27273  0.12313  1.0000
  C   C75       1.0  0.19462  0.34139  0.07175  1.0000
  H   H50       1.0  0.16622  0.36789  0.06244  1.0000
  C   C76       1.0  0.23850  0.34032  0.04476  1.0000
  C   C77       1.0  0.18678  0.30840  0.11055  1.0000
  H   H51       1.0  0.15254  0.30997  0.13127  1.0000
  C   C78       1.0  0.27368  0.30424  0.05678  1.0000
  H   H52       1.0  0.30742  0.30211  0.03527  1.0000
  O   O22       1.0  0.74679  0.69783  0.67625  1.0000
  B   B22       1.0  0.71387  0.73570  0.66598  1.0000
  O   O23       1.0  0.75481  0.69969  0.32499  1.0000
  B   B23       1.0  0.78776  0.73804  0.33372  1.0000
  C   C79       1.0  0.73385  0.77305  0.40302  1.0000
  H   H53       1.0  0.70548  0.74680  0.39227  1.0000
  C   C80       1.0  0.77913  0.77327  0.37763  1.0000
  C   C81       1.0  0.80669  0.83968  0.43175  1.0000
  H   H54       1.0  0.83565  0.86478  0.44335  1.0000
  C   C82       1.0  0.76112  0.84023  0.45583  1.0000
  C   C83       1.0  0.81537  0.80686  0.39305  1.0000
  H   H55       1.0  0.85103  0.80698  0.37475  1.0000
  C   C84       1.0  0.72507  0.80584  0.44135  1.0000
  H   H56       1.0  0.69010  0.80479  0.46089  1.0000
  O   O24       1.0  0.25664  0.19497  0.82985  1.0000
  B   B24       1.0  0.28654  0.23617  0.83627  1.0000
  O   O25       1.0  0.99312  0.07726  0.55071  1.0000
  B   B25       1.0  0.96012  0.08525  0.51231  1.0000
  O   O26       1.0  0.49320  0.57777  0.05475  1.0000
  B   B26       1.0  0.46238  0.58456  0.01437  1.0000
  O   O27       1.0  0.50667  0.92013  0.05289  1.0000
  B   B27       1.0  0.53606  0.91483  0.01126  1.0000
  O   O28       1.0  0.00939  0.41963  0.55716  1.0000
  B   B28       1.0  0.03957  0.41245  0.51635  1.0000
  O   O29       1.0  0.48849  0.41754  0.44047  1.0000
  B   B29       1.0  0.45852  0.41141  0.48169  1.0000
  O   O30       1.0  0.99520  0.92480  0.94756  1.0000
  B   B30       1.0  0.96189  0.91541  0.98545  1.0000
  O   O31       1.0  0.00715  0.57753  0.94766  1.0000
  B   B31       1.0  0.03838  0.58452  0.98776  1.0000
  C   C85       1.0  0.98708  0.65719  0.01964  1.0000
  H   H57       1.0  0.96083  0.64954  0.99032  1.0000
  C   C86       1.0  0.02928  0.62749  0.02396  1.0000
  C   C87       1.0  0.05431  0.67749  0.09452  1.0000
  H   H58       1.0  0.08132  0.68546  0.12290  1.0000
  C   C88       1.0  0.01200  0.70658  0.09038  1.0000
  C   C89       1.0  0.06261  0.63847  0.06198  1.0000
  H   H59       1.0  0.09570  0.61632  0.06589  1.0000
  C   C90       1.0  0.97867  0.69594  0.05204  1.0000
  H   H60       1.0  0.94624  0.71888  0.04745  1.0000
  O   O32       1.0  0.50470  0.07508  0.44944  1.0000
  B   B32       1.0  0.53640  0.08329  0.48889  1.0000
  O   O33       1.0  0.07751  0.55238  0.99514  1.0000
  B   B33       1.0  0.08424  0.51225  0.96399  1.0000
  O   O34       1.0  0.57647  0.05212  0.49541  1.0000
  B   B34       1.0  0.58658  0.01485  0.46162  1.0000
  C   C91       1.0  0.65476  0.97734  0.51606  1.0000
  H   H61       1.0  0.64459  0.00332  0.54483  1.0000
  C   C92       1.0  0.62966  0.97858  0.47057  1.0000
  C   C93       1.0  0.68215  0.91103  0.44268  1.0000
  H   H62       1.0  0.69301  0.88599  0.41344  1.0000
  C   C94       1.0  0.70605  0.90922  0.48841  1.0000
  C   C95       1.0  0.64448  0.94496  0.43410  1.0000
  H   H63       1.0  0.62635  0.94551  0.39833  1.0000
  C   C96       1.0  0.69217  0.94353  0.52471  1.0000
  H   H64       1.0  0.71153  0.94368  0.55982  1.0000
  O   O35       1.0  0.91930  0.05461  0.50734  1.0000
  B   B35       1.0  0.91371  0.01367  0.53789  1.0000
  C   C97       1.0  0.84304  0.97891  0.48543  1.0000
  H   H65       1.0  0.85181  0.00675  0.45788  1.0000
  C   C98       1.0  0.87056  0.97731  0.52943  1.0000
  C   C99       1.0  0.81915  0.90827  0.55619  1.0000
  H   H66       1.0  0.80953  0.88168  0.58456  1.0000
  C   C100      1.0  0.79287  0.90921  0.51177  1.0000
  C   C101      1.0  0.85772  0.94145  0.56454  1.0000
  H   H67       1.0  0.87801  0.93975  0.59911  1.0000
  C   C102      1.0  0.80518  0.94550  0.47673  1.0000
  H   H68       1.0  0.78424  0.94758  0.44263  1.0000
  O   O36       1.0  0.42317  0.55236  0.00719  1.0000
  B   B36       1.0  0.41424  0.51396  0.03998  1.0000
  C   C103      1.0  0.34269  0.48064  0.98724  1.0000
  H   H69       1.0  0.35108  0.50910  0.96022  1.0000
  C   C104      1.0  0.37060  0.47829  0.03099  1.0000
  C   C105      1.0  0.31957  0.40864  0.05670  1.0000
  H   H70       1.0  0.31023  0.38159  0.08470  1.0000
  C   C106      1.0  0.29297  0.41015  0.01248  1.0000
  C   C107      1.0  0.35785  0.44193  0.06559  1.0000
  H   H71       1.0  0.37808  0.43983  0.10015  1.0000
  C   C108      1.0  0.30469  0.44739  0.97820  1.0000
  H   H72       1.0  0.28320  0.45049  0.94450  1.0000
  O   O37       1.0  0.42062  0.44475  0.49014  1.0000
  B   B37       1.0  0.41380  0.48498  0.45916  1.0000
  C   C109      1.0  0.34297  0.51891  0.51227  1.0000
  H   H73       1.0  0.35084  0.49028  0.53922  1.0000
  C   C110      1.0  0.37143  0.52164  0.46890  1.0000
  C   C111      1.0  0.32142  0.59176  0.44319  1.0000
  H   H74       1.0  0.31269  0.61911  0.41533  1.0000
  C   C112      1.0  0.29380  0.58941  0.48671  1.0000
  C   C113      1.0  0.35976  0.55862  0.43465  1.0000
  H   H75       1.0  0.38076  0.56117  0.40058  1.0000
  C   C114      1.0  0.30492  0.55198  0.52088  1.0000
  H   H76       1.0  0.28272  0.54851  0.55408  1.0000
  O   O38       1.0  0.92087  0.94552  0.99073  1.0000
  B   B38       1.0  0.91469  0.98687  0.96094  1.0000
  O   O39       1.0  0.57421  0.94807  0.00287  1.0000
  B   B39       1.0  0.58326  0.98620  0.03609  1.0000
  O   O40       1.0  0.07837  0.44489  0.50754  1.0000
  B   B40       1.0  0.08603  0.48513  0.53831  1.0000
  C   C115      1.0  0.15654  0.51895  0.48414  1.0000
  H   H77       1.0  0.14825  0.49036  0.45725  1.0000
  C   C116      1.0  0.12866  0.52152  0.52789  1.0000
  C   C117      1.0  0.17919  0.59159  0.55319  1.0000
  H   H78       1.0  0.18826  0.61896  0.58091  1.0000
  C   C118      1.0  0.20623  0.58941  0.50930  1.0000
  C   C119      1.0  0.14084  0.55840  0.56206  1.0000
  H   H79       1.0  0.12017  0.56078  0.59632  1.0000
  C   C120      1.0  0.19450  0.55223  0.47503  1.0000
  H   H80       1.0  0.21602  0.54921  0.44133  1.0000
  O   O41       1.0  0.55268  0.99204  0.07688  1.0000
  B   B41       1.0  0.51335  0.95996  0.08448  1.0000
  C   C121      1.0  0.47926  0.01431  0.15374  1.0000
  H   H81       1.0  0.50722  0.04142  0.14407  1.0000
  C   C122      1.0  0.47694  0.96979  0.12713  1.0000
  C   C123      1.0  0.40783  0.94499  0.17906  1.0000
  H   H82       1.0  0.38078  0.91727  0.18915  1.0000
  C   C124      1.0  0.41007  0.98947  0.20513  1.0000
  C   C125      1.0  0.44058  0.93547  0.14053  1.0000
  H   H83       1.0  0.43809  0.90061  0.12086  1.0000
  C   C126      1.0  0.44664  0.02393  0.19204  1.0000
  H   H84       1.0  0.44964  0.05814  0.21269  1.0000
  O   O42       1.0  0.05459  0.49274  0.57812  1.0000
  B   B42       1.0  0.01563  0.46065  0.58730  1.0000
  O   O43       1.0  0.05224  0.50500  0.92470  1.0000
  B   B43       1.0  0.01387  0.53773  0.91609  1.0000
  O   O44       1.0  0.55685  0.00983  0.42010  1.0000
  B   B44       1.0  0.51456  0.03828  0.41507  1.0000
  O   O45       1.0  0.44579  0.49232  0.41977  1.0000
  B   B45       1.0  0.48363  0.45900  0.41061  1.0000
  O   O46       1.0  0.94769  0.99514  0.92251  1.0000
  B   B46       1.0  0.98771  0.96401  0.91536  1.0000
  C   C127      1.0  0.02089  0.01577  0.84283  1.0000
  H   H85       1.0  0.99290  0.04318  0.85107  1.0000
  C   C128      1.0  0.02377  0.97291  0.87206  1.0000
  C   C129      1.0  0.09254  0.94582  0.82077  1.0000
  H   H86       1.0  0.11987  0.91799  0.81222  1.0000
  C   C130      1.0  0.08994  0.98879  0.79233  1.0000
  C   C131      1.0  0.06012  0.93819  0.86008  1.0000
  H   H87       1.0  0.06281  0.90446  0.88163  1.0000
  C   C132      1.0  0.05315  0.02343  0.80374  1.0000
  H   H88       1.0  0.05002  0.05656  0.78137  1.0000
  O   O47       1.0  0.94772  0.00521  0.57526  1.0000
  B   B47       1.0  0.98702  0.03750  0.58258  1.0000
  C   C133      1.0  0.02124  0.98509  0.65370  1.0000
  H   H89       1.0  0.99341  0.95756  0.64497  1.0000
  C   C134      1.0  0.02356  0.02871  0.62551  1.0000
  C   C135      1.0  0.09248  0.05530  0.67713  1.0000
  H   H90       1.0  0.11948  0.08337  0.68641  1.0000
  C   C136      1.0  0.09043  0.01152  0.70443  1.0000
  C   C137      1.0  0.05975  0.06357  0.63820  1.0000
  H   H91       1.0  0.06210  0.09789  0.61755  1.0000
  C   C138      1.0  0.05382  0.97679  0.69234  1.0000
  H   H92       1.0  0.05093  0.94315  0.71399  1.0000
  O   O48       1.0  0.44553  0.50742  0.08009  1.0000
  B   B48       1.0  0.48599  0.53832  0.08674  1.0000
  C   C139      1.0  0.52203  0.48438  0.15598  1.0000
  H   H93       1.0  0.49421  0.45681  0.14732  1.0000
  C   C140      1.0  0.52331  0.52859  0.12872  1.0000
  C   C141      1.0  0.59335  0.55471  0.17892  1.0000
  H   H94       1.0  0.62044  0.58277  0.18792  1.0000
  C   C142      1.0  0.59193  0.51065  0.20578  1.0000
  C   C143      1.0  0.55983  0.56327  0.14079  1.0000
  H   H95       1.0  0.56177  0.59770  0.12027  1.0000
  C   C144      1.0  0.55563  0.47560  0.19361  1.0000
  H   H96       1.0  0.55355  0.44146  0.21455  1.0000
  C   C145      1.0  0.00081  0.75085  0.12445  1.0000
  C   C146      1.0  0.49790  0.25061  0.62504  1.0000
  C   C147      1.0  0.00035  0.25025  0.37469  1.0000
  C   C148      1.0  0.49829  0.74917  0.87409  1.0000
  C   C149      1.0  0.12464  0.99999  0.74847  1.0000
  C   C150      1.0  0.62641  0.49938  0.24979  1.0000
  C   C151      1.0  0.37636  0.00112  0.24942  1.0000
  C   C152      1.0  0.87578  0.50009  0.75096  1.0000
  C   C153      1.0  0.74907  0.12460  0.99998  1.0000
  C   C154      1.0  0.25008  0.62401  0.49804  1.0000
  C   C155      1.0  0.24946  0.37509  0.00093  1.0000
  C   C156      1.0  0.74943  0.87427  0.49981  1.0000
  C  Sn1       1.0  0.98359  0.51415  0.67470  1.0000
  C   C157      1.0  0.98666  0.47296  0.64399  1.0000
  C  Sn2       1.0  0.94777  0.43932  0.64148  1.0000
  C  Sn3       1.0  0.90490  0.44702  0.67024  1.0000
  C   C158      1.0  0.90184  0.48819  0.70092  1.0000
  C  Sn4       1.0  0.94072  0.52185  0.70347  1.0000
  O  Te1       1.0  0.02292  0.54729  0.67663  1.0000
  O  Te2       1.0  0.95169  0.39841  0.61051  1.0000
  O  Te3       1.0  0.86556  0.41383  0.66829  1.0000
  O  Te4       1.0  0.93681  0.56274  0.73440  1.0000
  Mg  Mg1       1.0  0.88832  0.36371  0.62055  1.0000
  Mg  Mg2       1.0  0.00014  0.59748  0.72437  1.0000
  C  Sn5       1.0  0.17661  0.44454  0.03267  1.0000
  C   C159      1.0  0.19429  0.40773  0.00138  1.0000
  C  Sn6       1.0  0.18080  0.40645  0.95171  1.0000
  C  Sn7       1.0  0.14900  0.44330  0.93289  1.0000
  C   C160      1.0  0.13135  0.48009  0.96417  1.0000
  C  Sn8       1.0  0.14482  0.48139  0.01385  1.0000
  O  Te5       1.0  0.19058  0.44456  0.08220  1.0000
  O  Te6       1.0  0.19892  0.36927  0.92116  1.0000
  O  Te7       1.0  0.13504  0.44326  0.88332  1.0000
  O  Te8       1.0  0.12672  0.51855  0.04439  1.0000
  Mg  Mg3       1.0  0.16937  0.38498  0.85635  1.0000
  Mg  Mg4       1.0  0.15627  0.50289  0.10920  1.0000
  C  Sn9       1.0  0.86394  0.08036  0.94545  1.0000
  C   C161      1.0  0.87772  0.03924  0.97317  1.0000
  C  Sn10      1.0  0.84553  0.01977  0.00801  1.0000
  C  Sn11      1.0  0.79858  0.04126  0.01526  1.0000
  C   C162      1.0  0.78482  0.08180  0.98754  1.0000
  C  Sn12      1.0  0.81699  0.10185  0.95270  1.0000
  O  Te9       1.0  0.89671  0.09976  0.91082  1.0000
  O  Te10      1.0  0.86259  0.97866  0.03530  1.0000
  O  Te11      1.0  0.76581  0.02182  0.04992  1.0000
  O  Te12      1.0  0.80241  0.14293  0.92542  1.0000
  Mg  Mg5       1.0  0.80500  0.96557  0.07806  1.0000
  Mg  Mg6       1.0  0.85996  0.15603  0.88262  1.0000
  C  Sn13      1.0  0.23203  0.71327  0.55183  1.0000
  C   C163      1.0  0.26174  0.67425  0.53643  1.0000
  C  Sn14      1.0  0.29858  0.65598  0.56727  1.0000
  C  Sn15      1.0  0.30587  0.67711  0.61451  1.0000
  C   C164      1.0  0.27617  0.71610  0.62990  1.0000
  C  Sn16      1.0  0.23932  0.73441  0.59907  1.0000
  O  Te13      1.0  0.19542  0.73095  0.52039  1.0000
  O  Te14      1.0  0.32782  0.61696  0.55105  1.0000
  O  Te15      1.0  0.34252  0.65940  0.64596  1.0000
  O  Te16      1.0  0.21008  0.77339  0.61527  1.0000
  Mg  Mg7       1.0  0.37289  0.60569  0.60725  1.0000
  Mg  Mg8       1.0  0.16500  0.78468  0.55912  1.0000
  C  Sn17      1.0  0.55700  0.53003  0.32368  1.0000
  C   C165      1.0  0.59251  0.49812  0.30465  1.0000
  C  Sn18      1.0  0.59015  0.44769  0.31465  1.0000
  C  Sn19      1.0  0.55148  0.42874  0.34425  1.0000
  C   C166      1.0  0.51599  0.46064  0.36326  1.0000
  C  Sn20      1.0  0.51832  0.51108  0.35329  1.0000
  O  Te17      1.0  0.56008  0.58031  0.31321  1.0000
  O  Te18      1.0  0.62609  0.41652  0.29523  1.0000
  O  Te19      1.0  0.54842  0.37842  0.35472  1.0000
  O  Te20      1.0  0.48241  0.54225  0.37268  1.0000
  Mg  Mg9       1.0  0.60605  0.35079  0.31984  1.0000
  Mg  Mg10      1.0  0.50240  0.60797  0.34808  1.0000
  C  Sn21      1.0  0.31286  0.90520  0.31949  1.0000
  C   C167      1.0  0.27483  0.88854  0.28905  1.0000
  C  Sn22      1.0  0.27212  0.90395  0.23999  1.0000
  C  Sn23      1.0  0.30819  0.93666  0.22095  1.0000
  C   C168      1.0  0.34619  0.95329  0.25138  1.0000
  C  Sn24      1.0  0.34893  0.93791  0.30044  1.0000
  O  Te21      1.0  0.31485  0.88932  0.36841  1.0000
  O  Te22      1.0  0.23375  0.88681  0.21028  1.0000
  O  Te23      1.0  0.30617  0.95253  0.17198  1.0000
  O  Te24      1.0  0.38728  0.95502  0.33015  1.0000
  Mg  Mg11      1.0  0.24686  0.91894  0.14606  1.0000
  Mg  Mg12      1.0  0.37422  0.92289  0.39435  1.0000
  C  Sn25      1.0  0.94411  0.86369  0.07782  1.0000
  C   C169      1.0  0.97254  0.87820  0.03740  1.0000
  C  Sn26      1.0  0.00890  0.84709  0.01872  1.0000
  C  Sn27      1.0  0.01698  0.80047  0.04088  1.0000
  C   C170      1.0  0.98854  0.78597  0.08126  1.0000
  C  Sn28      1.0  0.95219  0.81707  0.09998  1.0000
  O  Te25      1.0  0.90797  0.89539  0.09588  1.0000
  O  Te26      1.0  0.03687  0.86187  0.97829  1.0000
  O  Te27      1.0  0.05315  0.76877  0.02278  1.0000
  O  Te28      1.0  0.92422  0.80176  0.14037  1.0000
  Mg  Mg13      1.0  0.08173  0.80564  0.96703  1.0000
  Mg  Mg14      1.0  0.87933  0.85795  0.15165  1.0000
  C  Sn29      1.0  0.27831  0.71310  0.40386  1.0000
  C   C171      1.0  0.23746  0.71686  0.37282  1.0000
  C  Sn30      1.0  0.19302  0.69419  0.38548  1.0000
  C  Sn31      1.0  0.18933  0.66722  0.43011  1.0000
  C   C172      1.0  0.23016  0.66347  0.46113  1.0000
  C  Sn32      1.0  0.27461  0.68612  0.44850  1.0000
  O  Te29      1.0  0.32236  0.73606  0.39047  1.0000
  O  Te30      1.0  0.15270  0.69846  0.35384  1.0000
  O  Te31      1.0  0.14523  0.64425  0.44349  1.0000
  O  Te32      1.0  0.31492  0.68187  0.48012  1.0000
  Mg  Mg15      1.0  0.10062  0.66066  0.38823  1.0000
  Mg  Mg16      1.0  0.36701  0.71968  0.44577  1.0000
  C  Sn33      1.0  0.90815  0.77772  0.21573  1.0000
  C   C173      1.0  0.87486  0.73842  0.21676  1.0000
  C  Sn34      1.0  0.88465  0.69528  0.19052  1.0000
  C  Sn35      1.0  0.92865  0.69133  0.16271  1.0000
  C   C174      1.0  0.96191  0.73061  0.16171  1.0000
  C  Sn36      1.0  0.95214  0.77377  0.18792  1.0000
  O  Te33      1.0  0.89760  0.82050  0.24224  1.0000
  O  Te34      1.0  0.85080  0.65649  0.19210  1.0000
  O  Te35      1.0  0.93917  0.64851  0.13620  1.0000
  O  Te36      1.0  0.98597  0.81254  0.18637  1.0000
  Mg  Mg17      1.0  0.88166  0.60576  0.14987  1.0000
  Mg  Mg18      1.0  0.95516  0.86327  0.22860  1.0000
  C  Sn37      1.0  0.77668  0.78526  0.59450  1.0000
  C   C175      1.0  0.73473  0.77964  0.62377  1.0000
  C  Sn38      1.0  0.69014  0.80074  0.60946  1.0000
  C  Sn39      1.0  0.68740  0.82801  0.56494  1.0000
  C   C176      1.0  0.72933  0.83361  0.53569  1.0000
  C  Sn40      1.0  0.77395  0.81252  0.54998  1.0000
  O  Te37      1.0  0.82087  0.76384  0.60953  1.0000
  O  Te38      1.0  0.64870  0.79464  0.63934  1.0000
  O  Te39      1.0  0.64316  0.84944  0.54992  1.0000
  O  Te40      1.0  0.81536  0.81861  0.52012  1.0000
  Mg  Mg19      1.0  0.59687  0.83080  0.60311  1.0000
  Mg  Mg20      1.0  0.86720  0.78244  0.55629  1.0000
  C  Sn41      1.0  0.01161  0.17392  0.48255  1.0000
  C   C177      1.0  0.97142  0.14174  0.48356  1.0000
  C  Sn42      1.0  0.93966  0.13853  0.44320  1.0000
  C  Sn43      1.0  0.94828  0.16808  0.40093  1.0000
  C   C178      1.0  0.98846  0.20023  0.39993  1.0000
  C  Sn44      1.0  0.02023  0.20347  0.44028  1.0000
  O  Te41      1.0  0.04288  0.17653  0.52332  1.0000
  O  Te42      1.0  0.89971  0.10609  0.44508  1.0000
  O  Te43      1.0  0.91697  0.16544  0.36015  1.0000
  O  Te44      1.0  0.06016  0.23588  0.43841  1.0000
  Mg  Mg21      1.0  0.86756  0.11569  0.38031  1.0000
  Mg  Mg22      1.0  0.09235  0.22629  0.50314  1.0000
  C  Sn45      1.0  0.94622  0.46903  0.82354  1.0000
  C   C179      1.0  0.90957  0.50027  0.80557  1.0000
  C  Sn46      1.0  0.90939  0.55012  0.81830  1.0000
  C  Sn47      1.0  0.94665  0.56915  0.84961  1.0000
  C   C180      1.0  0.98327  0.53791  0.86755  1.0000
  C  Sn48      1.0  0.98347  0.48805  0.85485  1.0000
  O  Te45      1.0  0.94567  0.41932  0.81033  1.0000
  O  Te46      1.0  0.87236  0.58064  0.79990  1.0000
  O  Te47      1.0  0.94717  0.61891  0.86281  1.0000
  O  Te48      1.0  0.02048  0.45755  0.87323  1.0000
  Mg  Mg23      1.0  0.88889  0.64574  0.82837  1.0000
  Mg  Mg24      1.0  0.00400  0.39245  0.84476  1.0000
  C  Sn49      1.0  0.67657  0.07836  0.06543  1.0000
  C   C181      1.0  0.70806  0.08129  0.02481  1.0000
  C  Sn50      1.0  0.69639  0.05636  0.98100  1.0000
  C  Sn51      1.0  0.65231  0.02849  0.97771  1.0000
  C   C182      1.0  0.62084  0.02612  0.01831  1.0000
  C  Sn52      1.0  0.63249  0.05048  0.06214  1.0000
  O  Te49      1.0  0.68898  0.10303  0.10886  1.0000
  O  Te50      1.0  0.72846  0.05983  0.94089  1.0000
  O  Te51      1.0  0.63992  0.00381  0.93423  1.0000
  O  Te52      1.0  0.60045  0.04704  0.10223  1.0000
  Mg  Mg25      1.0  0.69543  0.01967  0.88970  1.0000
  Mg  Mg26      1.0  0.63342  0.08719  0.15343  1.0000
  C  Sn53      1.0  0.96965  0.32074  0.44757  1.0000
  C   C183      1.0  0.00016  0.30471  0.40938  1.0000
  C  Sn54      1.0  0.04964  0.31869  0.40806  1.0000
  C  Sn55      1.0  0.06904  0.34931  0.44571  1.0000
  C   C184      1.0  0.03854  0.36532  0.48388  1.0000
  C  Sn56      1.0  0.98906  0.35137  0.48522  1.0000
  O  Te53      1.0  0.92030  0.30630  0.44816  1.0000
  O  Te54      1.0  0.07941  0.30221  0.36949  1.0000
  O  Te55      1.0  0.11843  0.36374  0.44509  1.0000
  O  Te56      1.0  0.95929  0.36782  0.52377  1.0000
  Mg  Mg27      1.0  0.14426  0.33180  0.38489  1.0000
  Mg  Mg28      1.0  0.89445  0.33824  0.50842  1.0000
  C  Sn57      1.0  0.59244  0.32232  0.68974  1.0000
  C   C185      1.0  0.60997  0.29176  0.72727  1.0000
  C  Sn58      1.0  0.59561  0.24237  0.72947  1.0000
  C  Sn59      1.0  0.56307  0.22311  0.69340  1.0000
  C   C186      1.0  0.54557  0.25366  0.65589  1.0000
  C  Sn60      1.0  0.55991  0.30306  0.65366  1.0000
  O  Te57      1.0  0.60729  0.37159  0.68825  1.0000
  O  Te58      1.0  0.61360  0.21254  0.76735  1.0000
  O  Te59      1.0  0.54823  0.17380  0.69491  1.0000
  O  Te60      1.0  0.54194  0.33288  0.61581  1.0000
  Mg  Mg29      1.0  0.58273  0.14785  0.75366  1.0000
  Mg  Mg30      1.0  0.57281  0.39757  0.62945  1.0000
  C  Sn61      1.0  0.46691  0.17632  0.55587  1.0000
  C   C187      1.0  0.49785  0.19475  0.59268  1.0000
  C  Sn62      1.0  0.54754  0.18177  0.59376  1.0000
  C  Sn63      1.0  0.56672  0.14973  0.55727  1.0000
  C   C188      1.0  0.53579  0.13132  0.52049  1.0000
  C  Sn64      1.0  0.48609  0.14427  0.51939  1.0000
  O  Te61      1.0  0.41735  0.18978  0.55551  1.0000
  O  Te62      1.0  0.57774  0.20066  0.63093  1.0000
  O  Te63      1.0  0.61632  0.13627  0.55766  1.0000
  O  Te64      1.0  0.45590  0.12541  0.48224  1.0000
  Mg  Mg31      1.0  0.64273  0.17157  0.61577  1.0000
  Mg  Mg32      1.0  0.39091  0.15449  0.49734  1.0000
  C  Sn65      1.0  0.71538  0.55388  0.23149  1.0000
  C   C189      1.0  0.67708  0.53751  0.26176  1.0000
  C  Sn66      1.0  0.65972  0.56716  0.30002  1.0000
  C  Sn67      1.0  0.68107  0.61417  0.30819  1.0000
  C   C190      1.0  0.71934  0.63053  0.27793  1.0000
  C  Sn68      1.0  0.73673  0.60089  0.23966  1.0000
  O  Te65      1.0  0.73215  0.52362  0.19345  1.0000
  O  Te66      1.0  0.62140  0.54998  0.32980  1.0000
  O  Te67      1.0  0.66427  0.64443  0.34627  1.0000
  O  Te68      1.0  0.77502  0.61805  0.20988  1.0000
  Mg  Mg33      1.0  0.61127  0.60473  0.37688  1.0000
  Mg  Mg34      1.0  0.78516  0.56335  0.16279  1.0000
  C  Sn69      1.0  0.22233  0.28506  0.90692  1.0000
  C   C191      1.0  0.26362  0.28116  0.87649  1.0000
  C  Sn70      1.0  0.30758  0.30474  0.88915  1.0000
  C  Sn71      1.0  0.31033  0.33278  0.93316  1.0000
  C   C192      1.0  0.26905  0.33666  0.96357  1.0000
  C  Sn72      1.0  0.22508  0.31310  0.95093  1.0000
  O  Te69      1.0  0.17877  0.26118  0.89353  1.0000
  O  Te70      1.0  0.34836  0.30032  0.85813  1.0000
  O  Te71      1.0  0.35393  0.35667  0.94653  1.0000
  O  Te72      1.0  0.18432  0.31751  0.98192  1.0000
  Mg  Mg35      1.0  0.39947  0.33963  0.89226  1.0000
  Mg  Mg36      1.0  0.13320  0.27819  0.94785  1.0000
  C  Sn73      1.0  0.48870  0.82291  0.98390  1.0000
  C   C193      1.0  0.52621  0.85819  0.98254  1.0000
  C  Sn74      1.0  0.55426  0.86475  0.93989  1.0000
  C  Sn75      1.0  0.54460  0.83546  0.89769  1.0000
  C   C194      1.0  0.50710  0.80021  0.89906  1.0000
  C  Sn76      1.0  0.47904  0.79362  0.94171  1.0000
  O  Te73      1.0  0.46112  0.81754  0.02693  1.0000
  O  Te74      1.0  0.59157  0.90024  0.93942  1.0000
  O  Te75      1.0  0.57222  0.84141  0.85464  1.0000
  O  Te76      1.0  0.44173  0.75817  0.94218  1.0000
  Mg  Mg37      1.0  0.61906  0.89455  0.87209  1.0000
  Mg  Mg38      1.0  0.41422  0.76439  0.00948  1.0000
  C  Sn77      1.0  0.19097  0.09185  0.82132  1.0000
  C   C195      1.0  0.22842  0.10953  0.79072  1.0000
  C  Sn78      1.0  0.22953  0.09673  0.74087  1.0000
  C  Sn79      1.0  0.19242  0.06563  0.72119  1.0000
  C   C196      1.0  0.15499  0.04797  0.75178  1.0000
  C  Sn80      1.0  0.15386  0.06075  0.80164  1.0000
  O  Te77      1.0  0.19059  0.10512  0.87104  1.0000
  O  Te78      1.0  0.26735  0.11486  0.71100  1.0000
  O  Te79      1.0  0.19283  0.05237  0.67142  1.0000
  O  Te80      1.0  0.11606  0.04265  0.83149  1.0000
  Mg  Mg39      1.0  0.25195  0.08640  0.64561  1.0000
  Mg  Mg40      1.0  0.13141  0.07111  0.89688  1.0000
  C  Sn81      1.0  0.48699  0.99102  0.32264  1.0000
  C   C197      1.0  0.48391  0.02873  0.35767  1.0000
  C  Sn82      1.0  0.44203  0.05782  0.36374  1.0000
  C  Sn83      1.0  0.39987  0.04903  0.33418  1.0000
  C   C198      1.0  0.40050  0.01134  0.29917  1.0000
  C  Sn84      1.0  0.44484  0.98223  0.29308  1.0000
  O  Te81      1.0  0.52927  0.96239  0.31721  1.0000
  O  Te82      1.0  0.44229  0.09531  0.39900  1.0000
  O  Te83      1.0  0.35759  0.07770  0.33963  1.0000
  O  Te84      1.0  0.44459  0.94475  0.25785  1.0000
  Mg  Mg41      1.0  0.37585  0.12437  0.39263  1.0000
  Mg  Mg42      1.0  0.51099  0.91566  0.26421  1.0000
  C  Sn85      1.0  0.52971  0.68068  0.94882  1.0000
  C   C199      1.0  0.50022  0.69511  0.90919  1.0000
  C  Sn86      1.0  0.45201  0.67765  0.90501  1.0000
  C  Sn87      1.0  0.43287  0.64512  0.94120  1.0000
  C   C200      1.0  0.46236  0.63071  0.98080  1.0000
  C  Sn88      1.0  0.51058  0.64815  0.98501  1.0000
  O  Te85      1.0  0.57780  0.69860  0.95226  1.0000
  O  Te86      1.0  0.42323  0.69258  0.86505  1.0000
  O  Te87      1.0  0.38474  0.62720  0.93773  1.0000
  O  Te88      1.0  0.53934  0.63379  0.02494  1.0000
  Mg  Mg43      1.0  0.35994  0.65819  0.87655  1.0000
  Mg  Mg44      1.0  0.60263  0.66818  0.01349  1.0000
  C  Sn89      1.0  0.40541  0.79753  0.84944  1.0000
  C   C201      1.0  0.44006  0.75960  0.84887  1.0000
  C  Sn90      1.0  0.44431  0.72889  0.80779  1.0000
  C  Sn91      1.0  0.41330  0.73628  0.76642  1.0000
  C   C202      1.0  0.37867  0.77420  0.76700  1.0000
  C  Sn92      1.0  0.37439  0.80492  0.80806  1.0000
  O  Te89      1.0  0.40180  0.82778  0.89089  1.0000
  O  Te90      1.0  0.47922  0.69120  0.80809  1.0000
  O  Te91      1.0  0.41693  0.70598  0.72495  1.0000
  O  Te92      1.0  0.33951  0.84259  0.80778  1.0000
  Mg  Mg45      1.0  0.47014  0.65969  0.74292  1.0000
  Mg  Mg46      1.0  0.34858  0.87414  0.87292  1.0000
  C  Sn93      1.0  0.52837  0.32125  0.55167  1.0000
  C   C203      1.0  0.49807  0.30529  0.59014  1.0000
  C  Sn94      1.0  0.44843  0.31844  0.59126  1.0000
  C  Sn95      1.0  0.42864  0.34814  0.55312  1.0000
  C   C204      1.0  0.45893  0.36408  0.51467  1.0000
  C  Sn96      1.0  0.50858  0.35095  0.51352  1.0000
  O  Te93      1.0  0.57789  0.30766  0.55130  1.0000
  O  Te94      1.0  0.41887  0.30205  0.63012  1.0000
  O  Te95      1.0  0.37908  0.36173  0.55352  1.0000
  O  Te96      1.0  0.53813  0.36731  0.47470  1.0000
  Mg  Mg47      1.0  0.35366  0.33028  0.61426  1.0000
  Mg  Mg48      1.0  0.60333  0.33909  0.49050  1.0000
