data_image0
_chemical_formula_structural       BOC6H4BOBOC6H4BOC6H4BOBOC6H4BOC6H4BOC6H4BOBOBOC6H4BOBOBOBOBOBOC6H4BOBOBOC6H4BOC6H4BOC6H4BOBOC6H4BOC6H4BOBOC6H4BOC6H4BOBOC6H4BOC6H4BOBOBOBOBOC6H4BOC6H4BOC6H4BOBOC6H4BOBOBOC6H4BOBOC6H4BOBOC6H4BOSi12C2Sn2C2HTe2HMgC2Sn2C2HTe2HMgC2Sn2C2HTe2HMgC2Sn2C2HTe2HMgC2Sn2C2HTe2HMgC2Sn2C2HTe2HMgC2Sn2C2HTe2HMgC2Sn2C2HTe2HMgC2Sn2C2HTe2HMgC2Sn2C2HTe2HMgC2Sn2C2HTe2HMgC2Sn2C2HTe2HMgC2Sn2C2HTe2HMgC2Sn2C2HTe2HMgC2Sn2C2HTe2HMgC2Sn2C2HTe2HMgC2Sn2C2HTe2HMgC2Sn2C2HTe2HMgC2Sn2C2HTe2HMgC2Sn2C2HTe2HMgC2Sn2C2HTe2HMgC2Sn2C2HTe2HMgC2Sn2C2HTe2HMgC2Sn2C2HTe2HMg
_chemical_formula_sum              "B48 O48 C240 H144 Si12 Sn48 Te48 Mg24"
_cell_length_a       28.421
_cell_length_b       28.2516
_cell_length_c       28.4831
_cell_angle_alpha    89.9161
_cell_angle_beta     90.0782
_cell_angle_gamma    90.1925

_symmetry_space_group_name_H-M    'P1'
_space_group_IT_number       1

loop_
  _space_group_symop_operation_xyz
  'x, y, z'

loop_
  _atom_site_type_symbol
  _atom_site_label
  _atom_site_symmetry_multiplicity
  _atom_site_fract_x
  _atom_site_fract_y
  _atom_site_fract_z
  _atom_site_occupancy
  B   B1        1.0  0.24009  0.17118  0.21785  1.0000
  O   O1        1.0  0.20393  0.17960  0.24971  1.0000
  C   C1        1.0  0.84612  0.58584  0.70291  1.0000
  C   C2        1.0  0.83951  0.55314  0.73963  1.0000
  C   C3        1.0  0.80165  0.56026  0.77075  1.0000
  C   C4        1.0  0.77172  0.59892  0.76558  1.0000
  C   C5        1.0  0.77818  0.63158  0.72870  1.0000
  C   C6        1.0  0.81585  0.62428  0.69753  1.0000
  H   H1        1.0  0.87470  0.58076  0.67804  1.0000
  H   H2        1.0  0.79539  0.53486  0.79890  1.0000
  H   H3        1.0  0.74266  0.60387  0.78990  1.0000
  H   H4        1.0  0.82109  0.64916  0.66878  1.0000
  B   B2        1.0  0.74396  0.67358  0.72162  1.0000
  O   O2        1.0  0.70663  0.68056  0.75245  1.0000
  B   B3        1.0  0.25737  0.83109  0.71618  1.0000
  O   O3        1.0  0.29538  0.82355  0.74615  1.0000
  C   C7        1.0  0.65529  0.41515  0.20351  1.0000
  C   C8        1.0  0.66468  0.44765  0.23979  1.0000
  C   C9        1.0  0.70450  0.43994  0.26839  1.0000
  C   C10       1.0  0.73369  0.40107  0.26097  1.0000
  C   C11       1.0  0.72441  0.36867  0.22452  1.0000
  C   C12       1.0  0.68475  0.37646  0.19591  1.0000
  H   H5        1.0  0.62499  0.42065  0.18072  1.0000
  H   H6        1.0  0.71300  0.46499  0.29621  1.0000
  H   H7        1.0  0.76438  0.39562  0.28324  1.0000
  H   H8        1.0  0.67725  0.35190  0.16742  1.0000
  B   B4        1.0  0.75769  0.32624  0.21592  1.0000
  O   O4        1.0  0.79598  0.31912  0.24555  1.0000
  C   C13       1.0  0.65791  0.58492  0.29810  1.0000
  C   C14       1.0  0.66572  0.55281  0.26124  1.0000
  C   C15       1.0  0.70434  0.56079  0.23121  1.0000
  C   C16       1.0  0.73408  0.59954  0.23786  1.0000
  C   C17       1.0  0.72645  0.63150  0.27495  1.0000
  C   C18       1.0  0.68777  0.62365  0.30480  1.0000
  H   H9        1.0  0.62849  0.57923  0.32190  1.0000
  H   H10       1.0  0.71138  0.53610  0.20276  1.0000
  H   H11       1.0  0.76388  0.60527  0.21454  1.0000
  H   H12       1.0  0.68152  0.64806  0.33365  1.0000
  B   B5        1.0  0.76051  0.67353  0.28312  1.0000
  O   O5        1.0  0.79987  0.67957  0.25468  1.0000
  B   B6        1.0  0.26226  0.17290  0.78524  1.0000
  O   O6        1.0  0.29979  0.18070  0.75474  1.0000
  C   C19       1.0  0.84136  0.42087  0.80160  1.0000
  C   C20       1.0  0.83863  0.44869  0.76067  1.0000
  C   C21       1.0  0.80318  0.43802  0.72761  1.0000
  C   C22       1.0  0.77174  0.40080  0.73508  1.0000
  C   C23       1.0  0.77452  0.37280  0.77601  1.0000
  C   C24       1.0  0.80982  0.38357  0.80910  1.0000
  H   H13       1.0  0.86814  0.42877  0.82786  1.0000
  H   H14       1.0  0.79997  0.45946  0.69594  1.0000
  H   H15       1.0  0.74446  0.39318  0.70928  1.0000
  H   H16       1.0  0.81212  0.36258  0.84111  1.0000
  B   B7        1.0  0.73982  0.33104  0.78379  1.0000
  O   O7        1.0  0.70272  0.32366  0.75257  1.0000
  C   C25       1.0  0.34535  0.91651  0.29829  1.0000
  C   C26       1.0  0.33816  0.94832  0.26090  1.0000
  C   C27       1.0  0.29951  0.94036  0.23080  1.0000
  C   C28       1.0  0.26976  0.90157  0.23730  1.0000
  C   C29       1.0  0.27705  0.86964  0.27462  1.0000
  C   C30       1.0  0.31518  0.87798  0.30517  1.0000
  H   H17       1.0  0.37442  0.92243  0.32253  1.0000
  H   H18       1.0  0.29227  0.96523  0.20246  1.0000
  H   H19       1.0  0.24019  0.89573  0.21366  1.0000
  H   H20       1.0  0.32100  0.85393  0.33451  1.0000
  B   B8        1.0  0.24300  0.82733  0.28205  1.0000
  O   O8        1.0  0.20688  0.81884  0.24997  1.0000
  C   C31       1.0  0.20373  0.34441  0.08642  1.0000
  C   C32       1.0  0.23964  0.33530  0.05372  1.0000
  C   C33       1.0  0.26752  0.29460  0.05997  1.0000
  C   C34       1.0  0.25991  0.26427  0.09787  1.0000
  C   C35       1.0  0.22400  0.27329  0.13066  1.0000
  C   C36       1.0  0.19594  0.31377  0.12414  1.0000
  H   H21       1.0  0.18144  0.37542  0.08202  1.0000
  H   H22       1.0  0.29502  0.28657  0.03460  1.0000
  H   H23       1.0  0.28163  0.23292  0.10225  1.0000
  H   H24       1.0  0.16778  0.32088  0.14897  1.0000
  B   B9        1.0  0.21602  0.23929  0.17266  1.0000
  O   O9        1.0  0.24503  0.20012  0.17860  1.0000
  B   B10       1.0  0.71845  0.74112  0.67627  1.0000
  O   O10       1.0  0.74991  0.70425  0.68376  1.0000
  B   B11       1.0  0.71683  0.26067  0.82673  1.0000
  O   O11       1.0  0.74566  0.30025  0.82152  1.0000
  C   C37       1.0  0.20044  0.65802  0.41730  1.0000
  C   C38       1.0  0.23873  0.66475  0.44795  1.0000
  C   C39       1.0  0.26971  0.70283  0.43911  1.0000
  C   C40       1.0  0.26270  0.73290  0.40091  1.0000
  C   C41       1.0  0.22423  0.72631  0.37026  1.0000
  C   C42       1.0  0.19329  0.68831  0.37916  1.0000
  H   H25       1.0  0.17592  0.62903  0.42367  1.0000
  H   H26       1.0  0.29926  0.70916  0.46274  1.0000
  H   H27       1.0  0.28678  0.76229  0.39467  1.0000
  H   H28       1.0  0.16315  0.68290  0.35610  1.0000
  B   B12       1.0  0.21660  0.76044  0.32826  1.0000
  O   O12       1.0  0.24792  0.79768  0.32081  1.0000
  B   B13       1.0  0.27959  0.76195  0.67152  1.0000
  O   O13       1.0  0.24976  0.80019  0.67878  1.0000
  B   B14       1.0  0.77963  0.25690  0.17169  1.0000
  O   O14       1.0  0.74990  0.29528  0.17872  1.0000
  B   B15       1.0  0.78318  0.74306  0.32724  1.0000
  O   O15       1.0  0.75232  0.70553  0.31919  1.0000
  B   B16       1.0  0.28782  0.24010  0.83145  1.0000
  O   O16       1.0  0.25704  0.20244  0.82387  1.0000
  B   B17       1.0  0.17279  0.21691  0.24246  1.0000
  O   O17       1.0  0.18038  0.24767  0.20494  1.0000
  C   C43       1.0  0.58176  0.69938  0.84296  1.0000
  C   C44       1.0  0.55092  0.73743  0.83484  1.0000
  C   C45       1.0  0.56086  0.76834  0.79722  1.0000
  C   C46       1.0  0.60034  0.76166  0.76906  1.0000
  C   C47       1.0  0.63126  0.72360  0.77719  1.0000
  C   C48       1.0  0.62118  0.69249  0.81455  1.0000
  H   H29       1.0  0.57456  0.67477  0.87155  1.0000
  H   H30       1.0  0.53710  0.79757  0.78967  1.0000
  H   H31       1.0  0.60761  0.78588  0.74018  1.0000
  H   H32       1.0  0.64443  0.66260  0.82105  1.0000
  B   B18       1.0  0.67452  0.71687  0.74484  1.0000
  O   O18       1.0  0.68106  0.74752  0.70704  1.0000
  B   B19       1.0  0.83002  0.71799  0.26112  1.0000
  O   O19       1.0  0.82144  0.74986  0.29743  1.0000
  B   B20       1.0  0.33152  0.21758  0.76245  1.0000
  O   O20       1.0  0.32541  0.24738  0.80087  1.0000
  C   C49       1.0  0.58386  0.30117  0.65632  1.0000
  C   C50       1.0  0.55343  0.26235  0.66282  1.0000
  C   C51       1.0  0.56267  0.23093  0.70015  1.0000
  C   C52       1.0  0.60107  0.23796  0.72978  1.0000
  C   C53       1.0  0.63143  0.27697  0.72352  1.0000
  C   C54       1.0  0.62216  0.30848  0.68628  1.0000
  H   H33       1.0  0.57697  0.32611  0.62798  1.0000
  H   H34       1.0  0.53900  0.20118  0.70635  1.0000
  H   H35       1.0  0.60777  0.21349  0.75855  1.0000
  H   H36       1.0  0.64504  0.33905  0.68115  1.0000
  B   B21       1.0  0.67306  0.28473  0.75787  1.0000
  O   O21       1.0  0.68086  0.25278  0.79446  1.0000
  C   C55       1.0  0.08917  0.79328  0.15222  1.0000
  C   C56       1.0  0.05446  0.75937  0.16315  1.0000
  C   C57       1.0  0.05998  0.73242  0.20448  1.0000
  C   C58       1.0  0.09851  0.73951  0.23400  1.0000
  C   C59       1.0  0.13290  0.77397  0.22350  1.0000
  C   C60       1.0  0.12771  0.80042  0.18188  1.0000
  H   H37       1.0  0.08558  0.81469  0.12060  1.0000
  H   H38       1.0  0.03339  0.70623  0.21390  1.0000
  H   H39       1.0  0.10207  0.71863  0.26594  1.0000
  H   H40       1.0  0.15411  0.82700  0.17308  1.0000
  B   B22       1.0  0.17435  0.78275  0.25791  1.0000
  O   O22       1.0  0.17881  0.75439  0.29770  1.0000
  C   C61       1.0  0.41827  0.80104  0.83755  1.0000
  C   C62       1.0  0.44625  0.76033  0.83267  1.0000
  C   C63       1.0  0.43466  0.72799  0.79674  1.0000
  C   C64       1.0  0.39622  0.73590  0.76726  1.0000
  C   C65       1.0  0.36792  0.77648  0.77245  1.0000
  C   C66       1.0  0.37984  0.80892  0.80801  1.0000
  H   H41       1.0  0.42682  0.82680  0.86465  1.0000
  H   H42       1.0  0.45611  0.69650  0.79176  1.0000
  H   H43       1.0  0.38777  0.71057  0.73971  1.0000
  H   H44       1.0  0.35860  0.84062  0.81222  1.0000
  B   B23       1.0  0.32529  0.78520  0.73949  1.0000
  O   O23       1.0  0.31684  0.75445  0.70232  1.0000
  B   B24       1.0  0.82586  0.28075  0.23915  1.0000
  O   O24       1.0  0.81702  0.24952  0.20242  1.0000
  C   C67       1.0  0.33266  0.59341  0.45033  1.0000
  C   C68       1.0  0.30315  0.58774  0.48958  1.0000
  C   C69       1.0  0.31334  0.55112  0.52167  1.0000
  C   C70       1.0  0.35164  0.52126  0.51473  1.0000
  C   C71       1.0  0.38103  0.52670  0.47526  1.0000
  C   C72       1.0  0.37096  0.56341  0.44335  1.0000
  H   H45       1.0  0.32535  0.62132  0.42499  1.0000
  H   H46       1.0  0.29066  0.54578  0.55204  1.0000
  H   H47       1.0  0.35888  0.49302  0.53976  1.0000
  H   H48       1.0  0.39321  0.56791  0.41256  1.0000
  B   B25       1.0  0.42298  0.49282  0.46705  1.0000
  O   O25       1.0  0.43072  0.45511  0.49764  1.0000
  C   C73       1.0  0.83356  0.09199  0.95119  1.0000
  C   C74       1.0  0.80157  0.08468  0.98821  1.0000
  C   C75       1.0  0.80923  0.04598  0.01861  1.0000
  C   C76       1.0  0.84749  0.01586  0.01225  1.0000
  C   C77       1.0  0.87945  0.02303  0.97514  1.0000
  C   C78       1.0  0.87174  0.06167  0.94478  1.0000
  H   H49       1.0  0.82811  0.12142  0.92705  1.0000
  H   H50       1.0  0.78455  0.03897  0.04706  1.0000
  H   H51       1.0  0.85288  0.98614  0.03599  1.0000
  H   H52       1.0  0.89582  0.06763  0.91567  1.0000
  B   B26       1.0  0.92165  0.98915  0.96772  1.0000
  O   O26       1.0  0.92868  0.95050  0.99740  1.0000
  B   B27       1.0  0.08050  0.50891  0.96602  1.0000
  O   O27       1.0  0.07369  0.54761  0.99539  1.0000
  C   C79       1.0  0.66955  0.91021  0.44980  1.0000
  C   C80       1.0  0.69697  0.91291  0.49089  1.0000
  C   C81       1.0  0.68557  0.94781  0.52433  1.0000
  C   C82       1.0  0.64776  0.97833  0.51724  1.0000
  C   C83       1.0  0.61988  0.97514  0.47640  1.0000
  C   C84       1.0  0.63160  0.94070  0.44277  1.0000
  H   H53       1.0  0.67818  0.88417  0.42306  1.0000
  H   H54       1.0  0.70685  0.95135  0.55600  1.0000
  H   H55       1.0  0.63948  0.00519  0.54330  1.0000
  H   H56       1.0  0.61082  0.93826  0.41071  1.0000
  B   B28       1.0  0.57761  0.00875  0.46867  1.0000
  O   O28       1.0  0.56910  0.04548  0.50002  1.0000
  C   C85       1.0  0.83225  0.90545  0.55144  1.0000
  C   C86       1.0  0.80112  0.91176  0.51351  1.0000
  C   C87       1.0  0.81050  0.94850  0.48125  1.0000
  C   C88       1.0  0.84966  0.97781  0.48663  1.0000
  C   C89       1.0  0.88091  0.97155  0.52459  1.0000
  C   C90       1.0  0.87144  0.93493  0.55684  1.0000
  H   H57       1.0  0.82558  0.87753  0.57703  1.0000
  H   H58       1.0  0.78650  0.95422  0.45192  1.0000
  H   H59       1.0  0.85637  0.00590  0.46129  1.0000
  H   H60       1.0  0.89523  0.92981  0.58638  1.0000
  B   B29       1.0  0.92377  0.00496  0.53117  1.0000
  O   O29       1.0  0.93098  0.04237  0.50004  1.0000
  B   B30       1.0  0.42265  0.51090  0.03581  1.0000
  O   O30       1.0  0.43080  0.54774  0.00446  1.0000
  C   C91       1.0  0.66275  0.09502  0.04243  1.0000
  C   C92       1.0  0.69671  0.08487  0.00797  1.0000
  C   C93       1.0  0.69027  0.04404  0.98025  1.0000
  C   C94       1.0  0.65085  0.01504  0.98613  1.0000
  C   C95       1.0  0.61673  0.02531  0.02045  1.0000
  C   C96       1.0  0.62361  0.06566  0.04869  1.0000
  H   H61       1.0  0.66733  0.12592  0.06482  1.0000
  H   H62       1.0  0.71668  0.03467  0.95420  1.0000
  H   H63       1.0  0.64635  0.98373  0.96435  1.0000
  H   H64       1.0  0.59799  0.07378  0.07584  1.0000
  B   B31       1.0  0.57348  0.99245  0.02766  1.0000
  O   O31       1.0  0.56512  0.95466  0.99749  1.0000
  C   C97       1.0  0.17002  0.58881  0.55117  1.0000
  C   C98       1.0  0.19885  0.58519  0.51120  1.0000
  C   C99       1.0  0.18845  0.54944  0.47818  1.0000
  C   C100      1.0  0.15003  0.51922  0.48438  1.0000
  C   C101      1.0  0.12066  0.52339  0.52394  1.0000
  C   C102      1.0  0.13159  0.55848  0.55736  1.0000
  H   H65       1.0  0.17785  0.61544  0.57770  1.0000
  H   H66       1.0  0.21093  0.54510  0.44754  1.0000
  H   H67       1.0  0.14241  0.49184  0.45857  1.0000
  H   H68       1.0  0.10972  0.56158  0.58857  1.0000
  B   B32       1.0  0.07770  0.49011  0.53086  1.0000
  O   O32       1.0  0.06922  0.45254  0.50026  1.0000
  B   B33       1.0  0.49057  0.46896  0.42160  1.0000
  O   O33       1.0  0.45288  0.49955  0.42887  1.0000
  B   B34       1.0  0.99052  0.96691  0.92325  1.0000
  O   O34       1.0  0.95277  0.99728  0.93088  1.0000
  B   B35       1.0  0.50619  0.96854  0.07407  1.0000
  O   O35       1.0  0.54280  0.00006  0.06486  1.0000
  B   B36       1.0  0.00976  0.46696  0.57642  1.0000
  O   O36       1.0  0.04745  0.49749  0.56854  1.0000
  C   C103      1.0  0.90826  0.54624  0.83517  1.0000
  C   C104      1.0  0.91753  0.51092  0.80170  1.0000
  C   C105      1.0  0.95711  0.48174  0.80834  1.0000
  C   C106      1.0  0.98603  0.48728  0.84753  1.0000
  C   C107      1.0  0.97654  0.52233  0.88132  1.0000
  C   C108      1.0  0.93724  0.55176  0.87440  1.0000
  H   H69       1.0  0.87836  0.56972  0.83021  1.0000
  H   H70       1.0  0.96547  0.45485  0.78230  1.0000
  H   H71       1.0  0.01662  0.46467  0.85217  1.0000
  H   H72       1.0  0.92981  0.57937  0.89991  1.0000
  B   B37       1.0  0.00948  0.52913  0.92412  1.0000
  O   O37       1.0  0.04891  0.50045  0.92956  1.0000
  C   C109      1.0  0.41112  0.05148  0.33125  1.0000
  C   C110      1.0  0.41674  0.01233  0.30130  1.0000
  C   C111      1.0  0.45354  0.98039  0.31104  1.0000
  C   C112      1.0  0.48322  0.98714  0.34951  1.0000
  C   C113      1.0  0.47747  0.02620  0.37964  1.0000
  C   C114      1.0  0.44097  0.05833  0.36967  1.0000
  H   H73       1.0  0.38345  0.07709  0.32413  1.0000
  H   H74       1.0  0.45924  0.95033  0.28783  1.0000
  H   H75       1.0  0.51137  0.96204  0.35647  1.0000
  H   H76       1.0  0.43622  0.08896  0.39231  1.0000
  B   B38       1.0  0.51079  0.03361  0.42221  1.0000
  O   O38       1.0  0.54769  0.00238  0.43047  1.0000
  C   C115      1.0  0.08835  0.05255  0.66899  1.0000
  C   C116      1.0  0.08333  0.01344  0.69921  1.0000
  C   C117      1.0  0.04765  0.98010  0.68920  1.0000
  C   C118      1.0  0.01869  0.98531  0.64998  1.0000
  C   C119      1.0  0.02402  0.02426  0.61942  1.0000
  C   C120      1.0  0.05921  0.05783  0.62983  1.0000
  H   H77       1.0  0.11507  0.07918  0.67649  1.0000
  H   H78       1.0  0.04229  0.95004  0.71262  1.0000
  H   H79       1.0  0.99145  0.95914  0.64261  1.0000
  H   H80       1.0  0.06349  0.08839  0.60689  1.0000
  B   B39       1.0  0.99120  0.03056  0.57635  1.0000
  O   O39       1.0  0.95470  0.99844  0.56860  1.0000
  B   B40       1.0  0.49069  0.53569  0.08051  1.0000
  O   O40       1.0  0.45265  0.50512  0.07398  1.0000
  C   C121      1.0  0.45432  0.33716  0.59464  1.0000
  C   C122      1.0  0.48960  0.30358  0.58557  1.0000
  C   C123      1.0  0.51815  0.31003  0.54561  1.0000
  C   C124      1.0  0.51156  0.34865  0.51580  1.0000
  C   C125      1.0  0.47595  0.38205  0.52455  1.0000
  C   C126      1.0  0.44753  0.37564  0.56456  1.0000
  H   H81       1.0  0.43174  0.33283  0.62521  1.0000
  H   H82       1.0  0.54533  0.28419  0.53754  1.0000
  H   H83       1.0  0.53380  0.35314  0.48504  1.0000
  H   H84       1.0  0.41979  0.40105  0.57181  1.0000
  B   B41       1.0  0.46792  0.42413  0.49051  1.0000
  O   O41       1.0  0.49763  0.43117  0.45229  1.0000
  B   B42       1.0  0.96680  0.92038  0.99057  1.0000
  O   O42       1.0  0.99758  0.92879  0.95345  1.0000
  B   B43       1.0  0.96756  0.07439  0.50720  1.0000
  O   O43       1.0  0.99746  0.06846  0.54554  1.0000
  C   C127      1.0  0.45058  0.66454  0.90654  1.0000
  C   C128      1.0  0.48718  0.69756  0.91292  1.0000
  C   C129      1.0  0.51738  0.69183  0.95186  1.0000
  C   C130      1.0  0.51142  0.65421  0.98305  1.0000
  C   C131      1.0  0.47477  0.62113  0.97671  1.0000
  C   C132      1.0  0.44449  0.62702  0.93796  1.0000
  H   H85       1.0  0.42655  0.66858  0.87700  1.0000
  H   H86       1.0  0.54541  0.71751  0.95799  1.0000
  H   H87       1.0  0.53500  0.65022  0.01294  1.0000
  H   H88       1.0  0.41580  0.60193  0.93282  1.0000
  B   B44       1.0  0.46760  0.57952  0.01149  1.0000
  O   O44       1.0  0.49750  0.57353  0.04982  1.0000
  B   B45       1.0  0.52855  0.92288  0.00602  1.0000
  O   O45       1.0  0.49975  0.92941  0.04499  1.0000
  C   C133      1.0  0.04819  0.33062  0.40829  1.0000
  C   C134      1.0  0.00880  0.30072  0.41339  1.0000
  C   C135      1.0  0.97708  0.31032  0.45022  1.0000
  C   C136      1.0  0.98437  0.34844  0.48052  1.0000
  C   C137      1.0  0.02364  0.37860  0.47510  1.0000
  C   C138      1.0  0.05542  0.36881  0.43856  1.0000
  H   H89       1.0  0.07350  0.32379  0.38049  1.0000
  H   H90       1.0  0.94656  0.28744  0.45530  1.0000
  H   H91       1.0  0.95955  0.35510  0.50884  1.0000
  H   H92       1.0  0.08618  0.39147  0.43427  1.0000
  B   B46       1.0  0.03197  0.42134  0.50825  1.0000
  O   O46       1.0  0.00234  0.42879  0.54638  1.0000
  B   B47       1.0  0.03328  0.57504  0.99156  1.0000
  O   O47       1.0  0.00029  0.56440  0.95694  1.0000
  C   C139      1.0  0.55052  0.16930  0.59081  1.0000
  C   C140      1.0  0.51068  0.19839  0.58603  1.0000
  C   C141      1.0  0.47791  0.18739  0.55038  1.0000
  C   C142      1.0  0.48475  0.14875  0.52076  1.0000
  C   C143      1.0  0.52461  0.11958  0.52564  1.0000
  C   C144      1.0  0.55725  0.13049  0.56127  1.0000
  H   H93       1.0  0.57663  0.17747  0.61764  1.0000
  H   H94       1.0  0.44702  0.20964  0.54553  1.0000
  H   H95       1.0  0.45922  0.14088  0.49328  1.0000
  H   H96       1.0  0.58833  0.10842  0.56543  1.0000
  B   B48       1.0  0.53288  0.07749  0.49177  1.0000
  O   O48       1.0  0.50421  0.07155  0.45254  1.0000
  Si  Si1       1.0  0.37714  0.00107  0.24960  1.0000
  Si  Si2       1.0  0.12315  0.00326  0.75098  1.0000
  Si  Si3       1.0  0.62621  0.50050  0.25070  1.0000
  Si  Si4       1.0  0.87854  0.50061  0.74950  1.0000
  Si  Si5       1.0  0.25180  0.37476  0.00212  1.0000
  Si  Si6       1.0  0.74933  0.12422  0.99785  1.0000
  Si  Si7       1.0  0.25025  0.62581  0.50020  1.0000
  Si  Si8       1.0  0.74854  0.87299  0.50215  1.0000
  Si  Si9       1.0  0.99826  0.24843  0.37365  1.0000
  Si  Si10      1.0  0.00147  0.74797  0.12523  1.0000
  Si  Si11      1.0  0.50057  0.25124  0.62477  1.0000
  Si  Si12      1.0  0.49792  0.74901  0.87241  1.0000
  C   C145      1.0  0.77116  0.21537  0.93299  1.0000
  C   C146      1.0  0.74498  0.17572  0.94661  1.0000
  C  Sn1       1.0  0.70844  0.15899  0.91820  1.0000
  C  Sn2       1.0  0.69800  0.18246  0.87538  1.0000
  C   C147      1.0  0.72442  0.22208  0.86205  1.0000
  C   C148      1.0  0.76090  0.23853  0.89075  1.0000
  H   H97       1.0  0.79940  0.22809  0.95518  1.0000
  O  Te1       1.0  0.68262  0.11934  0.93234  1.0000
  O  Te2       1.0  0.66169  0.16648  0.84632  1.0000
  H   H98       1.0  0.78118  0.26922  0.88018  1.0000
  Mg  Mg1       1.0  0.63652  0.11102  0.88078  1.0000
  C   C149      1.0  0.69046  0.83500  0.59362  1.0000
  C   C150      1.0  0.72812  0.83731  0.56220  1.0000
  C  Sn3       1.0  0.76503  0.80494  0.56553  1.0000
  C  Sn4       1.0  0.76412  0.76963  0.60099  1.0000
  C   C151      1.0  0.72627  0.76760  0.63224  1.0000
  C   C152      1.0  0.68952  0.80018  0.62860  1.0000
  H   H99       1.0  0.66201  0.86019  0.59080  1.0000
  O  Te3       1.0  0.80240  0.80776  0.53386  1.0000
  O  Te4       1.0  0.80055  0.73682  0.60510  1.0000
  H   H100      1.0  0.66035  0.79836  0.65292  1.0000
  Mg  Mg2       1.0  0.84379  0.75510  0.55368  1.0000
  C   C153      1.0  0.02132  0.02250  0.84131  1.0000
  C   C154      1.0  0.02351  0.98450  0.87276  1.0000
  C  Sn5       1.0  0.05756  0.94903  0.87037  1.0000
  C  Sn6       1.0  0.09339  0.95177  0.83582  1.0000
  C   C155      1.0  0.09426  0.98994  0.80455  1.0000
  C   C156      1.0  0.05666  0.02523  0.80724  1.0000
  H   H101      1.0  0.99483  0.04982  0.84341  1.0000
  O  Te5       1.0  0.05588  0.91131  0.90205  1.0000
  O  Te6       1.0  0.12787  0.91681  0.83267  1.0000
  H   H102      1.0  0.05758  0.05466  0.78291  1.0000
  Mg  Mg3       1.0  0.11067  0.87238  0.88370  1.0000
  C   C157      1.0  0.46585  0.02278  0.18221  1.0000
  C   C158      1.0  0.42373  0.00021  0.19430  1.0000
  C  Sn7       1.0  0.40988  0.96287  0.16705  1.0000
  C  Sn8       1.0  0.43542  0.94790  0.12699  1.0000
  C   C159      1.0  0.47753  0.97068  0.11521  1.0000
  C   C160      1.0  0.49106  0.00803  0.14272  1.0000
  H   H103      1.0  0.47892  0.05165  0.20350  1.0000
  O  Te7       1.0  0.36774  0.94073  0.17962  1.0000
  O  Te8       1.0  0.41905  0.91066  0.09915  1.0000
  H   H104      1.0  0.52369  0.02547  0.13337  1.0000
  Mg  Mg4       1.0  0.35984  0.89165  0.13062  1.0000
  C   C161      1.0  0.32053  0.46132  0.97716  1.0000
  C   C162      1.0  0.30511  0.42359  0.00371  1.0000
  C  Sn9       1.0  0.32830  0.41254  0.04558  1.0000
  C  Sn10      1.0  0.36624  0.44134  0.06107  1.0000
  C   C163      1.0  0.38001  0.48049  0.03427  1.0000
  C   C164      1.0  0.35794  0.48975  0.99242  1.0000
  H   H105      1.0  0.30238  0.46963  0.94480  1.0000
  O  Te9       1.0  0.31382  0.37324  0.07166  1.0000
  O  Te10      1.0  0.39002  0.43111  0.10278  1.0000
  H   H106      1.0  0.36881  0.52011  0.97189  1.0000
  Mg  Mg5       1.0  0.35726  0.37377  0.12610  1.0000
  C   C165      1.0  0.08937  0.27059  0.27264  1.0000
  C   C166      1.0  0.12448  0.23614  0.27474  1.0000
  C  Sn11      1.0  0.12164  0.19949  0.30762  1.0000
  C  Sn12      1.0  0.08289  0.19738  0.33891  1.0000
  C   C167      1.0  0.04793  0.23200  0.33651  1.0000
  C   C168      1.0  0.05113  0.26853  0.30349  1.0000
  H   H107      1.0  0.09182  0.29884  0.24708  1.0000
  O  Te11      1.0  0.15704  0.16537  0.30925  1.0000
  O  Te12      1.0  0.07917  0.16113  0.37210  1.0000
  H   H108      1.0  0.02392  0.29518  0.30185  1.0000
  Mg  Mg6       1.0  0.13627  0.12290  0.36065  1.0000
  C   C169      1.0  0.80256  0.15823  0.09353  1.0000
  C   C170      1.0  0.76701  0.15870  0.05958  1.0000
  C  Sn13      1.0  0.73312  0.19441  0.05970  1.0000
  C  Sn14      1.0  0.73495  0.23027  0.09449  1.0000
  C   C171      1.0  0.77067  0.22950  0.12827  1.0000
  C   C172      1.0  0.80440  0.19360  0.12784  1.0000
  H   H109      1.0  0.82867  0.13047  0.09318  1.0000
  O  Te13      1.0  0.69784  0.19434  0.02554  1.0000
  O  Te14      1.0  0.70153  0.26639  0.09541  1.0000
  H   H110      1.0  0.83193  0.19326  0.15411  1.0000
  Mg  Mg7       1.0  0.66029  0.25103  0.04143  1.0000
  C   C173      1.0  0.53608  0.47975  0.18572  1.0000
  C   C174      1.0  0.57844  0.50250  0.19660  1.0000
  C  Sn15      1.0  0.59400  0.54075  0.16957  1.0000
  C  Sn16      1.0  0.56656  0.55646  0.13095  1.0000
  C   C175      1.0  0.52421  0.53348  0.12037  1.0000
  C   C176      1.0  0.50898  0.49522  0.14765  1.0000
  H   H111      1.0  0.52427  0.45016  0.20683  1.0000
  O  Te15      1.0  0.63641  0.56307  0.18092  1.0000
  O  Te16      1.0  0.58127  0.59462  0.10336  1.0000
  H   H112      1.0  0.47617  0.47763  0.13923  1.0000
  Mg  Mg8       1.0  0.64160  0.61352  0.13281  1.0000
  C   C177      1.0  0.55623  0.86525  0.92472  1.0000
  C   C178      1.0  0.52760  0.88068  0.96146  1.0000
  C  Sn17      1.0  0.48844  0.85401  0.97508  1.0000
  C  Sn18      1.0  0.47783  0.81111  0.95142  1.0000
  C   C179      1.0  0.50670  0.79597  0.91473  1.0000
  C   C180      1.0  0.54580  0.82293  0.90138  1.0000
  H   H113      1.0  0.58650  0.88610  0.91440  1.0000
  O  Te17      1.0  0.45883  0.87142  0.01184  1.0000
  O  Te18      1.0  0.43890  0.78376  0.96433  1.0000
  H   H114      1.0  0.56798  0.81096  0.87295  1.0000
  Mg  Mg9       1.0  0.40967  0.82179  0.01656  1.0000
  C   C181      1.0  0.22641  0.29054  0.93105  1.0000
  C   C182      1.0  0.25653  0.32450  0.95045  1.0000
  C  Sn19      1.0  0.29938  0.33512  0.92881  1.0000
  C  Sn20      1.0  0.31220  0.31126  0.88696  1.0000
  C   C183      1.0  0.28181  0.27738  0.86781  1.0000
  C   C184      1.0  0.23903  0.26701  0.88977  1.0000
  H   H115      1.0  0.19330  0.28254  0.94802  1.0000
  O  Te19      1.0  0.32906  0.36912  0.94867  1.0000
  O  Te20      1.0  0.35481  0.32120  0.86460  1.0000
  H   H116      1.0  0.21570  0.24074  0.87472  1.0000
  Mg  Mg10      1.0  0.38339  0.37035  0.90521  1.0000
  C   C185      1.0  0.16411  0.09370  0.81033  1.0000
  C   C186      1.0  0.15907  0.06430  0.77122  1.0000
  C  Sn21      1.0  0.19049  0.06787  0.73369  1.0000
  C  Sn22      1.0  0.22762  0.10152  0.73546  1.0000
  C   C187      1.0  0.23238  0.13075  0.77476  1.0000
  C   C188      1.0  0.20073  0.12689  0.81212  1.0000
  H   H117      1.0  0.13964  0.09070  0.83925  1.0000
  O  Te21      1.0  0.18494  0.03824  0.69487  1.0000
  O  Te22      1.0  0.25953  0.10583  0.69845  1.0000
  H   H118      1.0  0.20466  0.14963  0.84241  1.0000
  Mg  Mg11      1.0  0.23734  0.05752  0.65317  1.0000
  C   C189      1.0  0.06427  0.63708  0.06865  1.0000
  C   C190      1.0  0.03361  0.61806  0.03518  1.0000
  C  Sn23      1.0  0.99084  0.64027  0.02543  1.0000
  C  Sn24      1.0  0.97865  0.68230  0.04968  1.0000
  C   C191      1.0  0.00958  0.70107  0.08308  1.0000
  C   C192      1.0  0.05228  0.67855  0.09257  1.0000
  H   H119      1.0  0.09732  0.61967  0.07598  1.0000
  O  Te23      1.0  0.96197  0.61931  0.99190  1.0000
  O  Te24      1.0  0.93613  0.70523  0.04061  1.0000
  H   H120      1.0  0.07603  0.69330  0.11846  1.0000
  Mg  Mg12      1.0  0.90801  0.66350  0.99184  1.0000
  C   C193      1.0  0.30828  0.66764  0.59009  1.0000
  C   C194      1.0  0.26983  0.66286  0.55982  1.0000
  C  Sn25      1.0  0.23162  0.69363  0.56332  1.0000
  C  Sn26      1.0  0.23202  0.72984  0.59779  1.0000
  C   C195      1.0  0.27068  0.73435  0.62789  1.0000
  C   C196      1.0  0.30872  0.70335  0.62409  1.0000
  H   H121      1.0  0.33773  0.64368  0.58714  1.0000
  O  Te25      1.0  0.19347  0.68835  0.53281  1.0000
  O  Te26      1.0  0.19431  0.76109  0.60205  1.0000
  H   H122      1.0  0.33850  0.70708  0.64751  1.0000
  Mg  Mg13      1.0  0.15038  0.73960  0.55238  1.0000
  C   C197      1.0  0.57325  0.44201  0.36549  1.0000
  C   C198      1.0  0.53533  0.46975  0.37994  1.0000
  C  Sn27      1.0  0.52104  0.50851  0.35300  1.0000
  C  Sn28      1.0  0.54521  0.51959  0.31082  1.0000
  C   C199      1.0  0.58308  0.49160  0.29665  1.0000
  C   C200      1.0  0.59710  0.45291  0.32388  1.0000
  H   H123      1.0  0.58408  0.41206  0.38654  1.0000
  O  Te27      1.0  0.48309  0.53586  0.36796  1.0000
  O  Te28      1.0  0.53166  0.55811  0.28322  1.0000
  H   H124      1.0  0.62644  0.43142  0.31267  1.0000
  Mg  Mg14      1.0  0.47785  0.58477  0.31835  1.0000
  C   C201      1.0  0.27515  0.09079  0.27358  1.0000
  C   C202      1.0  0.27471  0.12465  0.23777  1.0000
  C  Sn29      1.0  0.30561  0.12082  0.19986  1.0000
  C  Sn30      1.0  0.33748  0.08233  0.19786  1.0000
  C   C203      1.0  0.33762  0.04863  0.23385  1.0000
  C   C204      1.0  0.30657  0.05281  0.27163  1.0000
  H   H125      1.0  0.25111  0.09401  0.30280  1.0000
  O  Te29      1.0  0.30471  0.15497  0.16439  1.0000
  O  Te30      1.0  0.36873  0.07764  0.16037  1.0000
  H   H126      1.0  0.30689  0.02657  0.29934  1.0000
  Mg  Mg15      1.0  0.35414  0.13319  0.12055  1.0000
  C   C205      1.0  0.92771  0.22121  0.28911  1.0000
  C   C206      1.0  0.94626  0.25165  0.32310  1.0000
  C  Sn31      1.0  0.92339  0.29396  0.33383  1.0000
  C  Sn32      1.0  0.88117  0.30593  0.31004  1.0000
  C   C207      1.0  0.86288  0.27522  0.27611  1.0000
  C   C208      1.0  0.88606  0.23297  0.26564  1.0000
  H   H127      1.0  0.94563  0.18850  0.28102  1.0000
  O  Te31      1.0  0.94241  0.32398  0.36788  1.0000
  O  Te32      1.0  0.85759  0.34799  0.32009  1.0000
  H   H128      1.0  0.87168  0.20939  0.23934  1.0000
  Mg  Mg16      1.0  0.89739  0.37733  0.36926  1.0000
  C   C209      1.0  0.22824  0.91549  0.76930  1.0000
  C   C210      1.0  0.22517  0.87926  0.73608  1.0000
  C  Sn33      1.0  0.19040  0.88043  0.70138  1.0000
  C  Sn34      1.0  0.15816  0.91864  0.70000  1.0000
  C   C211      1.0  0.16154  0.95474  0.73337  1.0000
  C   C212      1.0  0.19646  0.95321  0.76795  1.0000
  H   H129      1.0  0.25527  0.91433  0.79604  1.0000
  O  Te33      1.0  0.18782  0.84393  0.66847  1.0000
  O  Te34      1.0  0.12307  0.92071  0.66569  1.0000
  H   H130      1.0  0.19885  0.98128  0.79364  1.0000
  Mg  Mg17      1.0  0.13384  0.86256  0.62855  1.0000
  C   C213      1.0  0.97721  0.52411  0.65640  1.0000
  C   C214      1.0  0.98043  0.48492  0.62671  1.0000
  C  Sn35      1.0  0.94913  0.44700  0.63159  1.0000
  C  Sn36      1.0  0.91398  0.44844  0.66688  1.0000
  C   C215      1.0  0.91102  0.48783  0.69638  1.0000
  C   C216      1.0  0.94253  0.52557  0.69120  1.0000
  H   H131      1.0  0.00157  0.55333  0.65237  1.0000
  O  Te35      1.0  0.95286  0.40811  0.60165  1.0000
  O  Te36      1.0  0.88223  0.41104  0.67252  1.0000
  H   H132      1.0  0.94000  0.55592  0.71417  1.0000
  Mg  Mg18      1.0  0.90149  0.36582  0.62315  1.0000
  C   C217      1.0  0.91469  0.77015  0.22984  1.0000
  C   C218      1.0  0.87865  0.73642  0.22835  1.0000
  C  Sn37      1.0  0.87991  0.69986  0.19540  1.0000
  C  Sn38      1.0  0.91802  0.69710  0.16341  1.0000
  C   C219      1.0  0.95393  0.73100  0.16521  1.0000
  C   C220      1.0  0.95231  0.76744  0.19831  1.0000
  H   H133      1.0  0.91346  0.79833  0.25547  1.0000
  O  Te37      1.0  0.84360  0.66646  0.19438  1.0000
  O  Te38      1.0  0.92018  0.66092  0.13013  1.0000
  H   H134      1.0  0.98024  0.79354  0.19948  1.0000
  Mg  Mg19      1.0  0.86229  0.62380  0.14258  1.0000
  C   C221      1.0  0.18567  0.46415  0.02271  1.0000
  C   C222      1.0  0.19897  0.42094  0.99938  1.0000
  C  Sn39      1.0  0.17306  0.40607  0.96034  1.0000
  C  Sn40      1.0  0.13451  0.43359  0.94444  1.0000
  C   C223      1.0  0.12287  0.47531  0.96800  1.0000
  C   C224      1.0  0.14767  0.49132  0.00704  1.0000
  H   H135      1.0  0.20592  0.47542  0.05289  1.0000
  O  Te39      1.0  0.18545  0.36427  0.93746  1.0000
  O  Te40      1.0  0.10803  0.41956  0.90551  1.0000
  H   H136      1.0  0.13844  0.52366  0.02507  1.0000
  Mg  Mg20      1.0  0.13865  0.35989  0.88604  1.0000
  C   C225      1.0  0.81254  0.82069  0.39048  1.0000
  C   C226      1.0  0.78532  0.78304  0.37372  1.0000
  C  Sn41      1.0  0.74228  0.77206  0.39479  1.0000
  C  Sn42      1.0  0.72628  0.79934  0.43335  1.0000
  C   C227      1.0  0.75376  0.83696  0.44984  1.0000
  C   C228      1.0  0.79678  0.84763  0.42850  1.0000
  H   H137      1.0  0.84582  0.82897  0.37396  1.0000
  O  Te41      1.0  0.71553  0.73431  0.37762  1.0000
  O  Te42      1.0  0.68339  0.78914  0.45505  1.0000
  H   H138      1.0  0.81784  0.87681  0.44146  1.0000
  Mg  Mg21      1.0  0.65953  0.73423  0.41894  1.0000
  C   C229      1.0  0.93834  0.13284  0.42629  1.0000
  C   C230      1.0  0.96734  0.11664  0.46253  1.0000
  C  Sn43      1.0  0.00733  0.14239  0.47551  1.0000
  C  Sn44      1.0  0.01840  0.18515  0.45171  1.0000
  C   C231      1.0  0.98915  0.20107  0.41552  1.0000
  C   C232      1.0  0.94922  0.17501  0.40281  1.0000
  H   H139      1.0  0.90744  0.11269  0.41646  1.0000
  O  Te43      1.0  0.03593  0.12569  0.51178  1.0000
  O  Te44      1.0  0.05814  0.21159  0.46398  1.0000
  H   H140      1.0  0.92676  0.18758  0.37477  1.0000
  Mg  Mg22      1.0  0.08624  0.17423  0.51571  1.0000
  C   C233      1.0  0.02231  0.81363  0.03518  1.0000
  C   C234      1.0  0.99861  0.80167  0.07651  1.0000
  C  Sn45      1.0  0.95996  0.82821  0.09123  1.0000
  C  Sn46      1.0  0.94485  0.86742  0.06400  1.0000
  C   C235      1.0  0.96878  0.87908  0.02270  1.0000
  C   C236      1.0  0.00741  0.85229  0.00829  1.0000
  H   H141      1.0  0.05219  0.79289  0.02402  1.0000
  O  Te45      1.0  0.93669  0.81578  0.13262  1.0000
  O  Te46      1.0  0.90632  0.89454  0.07790  1.0000
  H   H142      1.0  0.02710  0.86007  0.97628  1.0000
  Mg  Mg23      1.0  0.88608  0.86360  0.13696  1.0000
  C   C237      1.0  0.41497  0.27113  0.73104  1.0000
  C   C238      1.0  0.37890  0.23745  0.72895  1.0000
  C  Sn47      1.0  0.37964  0.20207  0.69475  1.0000
  C  Sn48      1.0  0.41724  0.20046  0.66208  1.0000
  C   C239      1.0  0.45317  0.23429  0.66448  1.0000
  C   C240      1.0  0.45208  0.26955  0.69884  1.0000
  H   H143      1.0  0.41414  0.29840  0.75764  1.0000
  O  Te47      1.0  0.34331  0.16872  0.69315  1.0000
  O  Te48      1.0  0.41886  0.16547  0.62754  1.0000
  H   H144      1.0  0.48003  0.29559  0.70046  1.0000
  Mg  Mg24      1.0  0.36117  0.12791  0.63962  1.0000
