data_image0
_chemical_formula_structural       C6H2BO2C6H2BO2C12H6BO2C6H2BO2C12H6BO2C12H6BO2C6H2BO2C6H2BO2C12H6BO2C6H2BO2C12H6BO2C12H6BO2C6H2BO2C6H2BO2C6H2BO2C6H2BO2C6H2BO2C12H6BO2C12H6BO2C6H2BO2C6H2BO2C6H2BO2C12H6BO2C6H2BO2C12H6BO2C12H6BO2C6H2BO2C12H6BO2C6H2BO2C12H6BO2C6H2BO2C12H6BO2C6H2BO2C12H6BO2C12H6BO2C12H6BO2C12H6BO2C12H6BO2C12H6BO2C6H2BO2C12H6BO2C12H6BO2C6H2BO2C6H2BO2C12H6BO2C6H2BO2C6H2BO2C12H6BO2Si12SnCSn2CSnTe4Mg2SnCSn2CSnTe4Mg2SnCSn2CSnTe4Mg2SnCSn2CSnTe4Mg2SnCSn2CSnTe4Mg2SnCSn2CSnTe4Mg2SnCSn2CSnTe4Mg2SnCSn2CSnTe4Mg2SnCSn2CSnTe4Mg2SnCSn2CSnTe4Mg2SnCSn2CSnTe4Mg2SnCSn2CSnTe4Mg2SnCSn2CSnTe4Mg2SnCSn2CSnTe4Mg2SnCSn2CSnTe4Mg2SnCSn2CSnTe4Mg2SnCSn2CSnTe4Mg2SnCSn2CSnTe4Mg2SnCSn2CSnTe4Mg2SnCSn2CSnTe4Mg2SnCSn2CSnTe4Mg2SnCSn2CSnTe4Mg2SnCSn2CSnTe4Mg2SnCSn2CSnTe4Mg2
_chemical_formula_sum              "C480 H192 B48 O96 Si12 Sn96 Te96 Mg48"
_cell_length_a       44.5355
_cell_length_b       44.4898
_cell_length_c       44.4579
_cell_angle_alpha    90.2953
_cell_angle_beta     89.6665
_cell_angle_gamma    90.0121

_symmetry_space_group_name_H-M    'P1'
_space_group_IT_number       1

loop_
  _space_group_symop_operation_xyz
  'x, y, z'

loop_
  _atom_site_type_symbol
  _atom_site_label
  _atom_site_symmetry_multiplicity
  _atom_site_fract_x
  _atom_site_fract_y
  _atom_site_fract_z
  _atom_site_occupancy
  C   C1        1.0  0.22722  0.21690  0.18336  1.0000
  C   C2        1.0  0.20191  0.23446  0.19279  1.0000
  C   C3        1.0  0.23544  0.25093  0.14227  1.0000
  C   C4        1.0  0.21087  0.26828  0.15172  1.0000
  C   C5        1.0  0.19404  0.26075  0.17656  1.0000
  C   C6        1.0  0.24394  0.22549  0.15743  1.0000
  H   H1        1.0  0.17545  0.27501  0.18338  1.0000
  H   H2        1.0  0.26308  0.21263  0.14939  1.0000
  B   B1        1.0  0.29065  0.10884  0.22928  1.0000
  O   O1        1.0  0.24826  0.26381  0.11689  1.0000
  O   O2        1.0  0.13031  0.20313  0.29230  1.0000
  C   C7        1.0  0.72464  0.71617  0.68382  1.0000
  C   C8        1.0  0.70021  0.73472  0.69364  1.0000
  C   C9        1.0  0.73305  0.74930  0.64218  1.0000
  C   C10       1.0  0.70906  0.76738  0.65172  1.0000
  C   C11       1.0  0.69258  0.76081  0.67703  1.0000
  C   C12       1.0  0.74114  0.72387  0.65750  1.0000
  H   H3        1.0  0.67418  0.77541  0.68363  1.0000
  H   H4        1.0  0.75974  0.71036  0.64929  1.0000
  B   B2        1.0  0.78716  0.60807  0.72996  1.0000
  O   O3        1.0  0.74560  0.76131  0.61634  1.0000
  O   O4        1.0  0.62752  0.70451  0.79246  1.0000
  C   C13       1.0  0.27373  0.78007  0.68285  1.0000
  C   C14       1.0  0.30038  0.76404  0.69083  1.0000
  C   C15       1.0  0.26703  0.74682  0.64068  1.0000
  C   C16       1.0  0.29350  0.73161  0.64801  1.0000
  C   C17       1.0  0.31029  0.73956  0.67263  1.0000
  C   C18       1.0  0.25686  0.77084  0.65737  1.0000
  C   C19       1.0  0.14526  0.94497  0.71811  1.0000
  C   C20       1.0  0.15054  0.96607  0.74115  1.0000
  C   C21       1.0  0.17478  0.96096  0.76075  1.0000
  C   C22       1.0  0.19300  0.93566  0.75748  1.0000
  C   C23       1.0  0.18782  0.91464  0.73425  1.0000
  C   C24       1.0  0.16362  0.91974  0.71463  1.0000
  H   H5        1.0  0.33065  0.72723  0.67755  1.0000
  H   H6        1.0  0.23637  0.78219  0.65089  1.0000
  H   H7        1.0  0.12671  0.94847  0.70267  1.0000
  H   H8        1.0  0.15929  0.90380  0.69649  1.0000
  H   H9        1.0  0.17947  0.97709  0.77863  1.0000
  H   H10       1.0  0.21159  0.93211  0.77287  1.0000
  B   B3        1.0  0.20866  0.88745  0.72982  1.0000
  O   O5        1.0  0.25452  0.73378  0.61532  1.0000
  O   O6        1.0  0.36991  0.79671  0.79087  1.0000
  C   C25       1.0  0.77334  0.28164  0.18338  1.0000
  C   C26       1.0  0.79962  0.26512  0.19141  1.0000
  C   C27       1.0  0.76583  0.24797  0.14168  1.0000
  C   C28       1.0  0.79195  0.23224  0.14914  1.0000
  C   C29       1.0  0.80897  0.24018  0.17357  1.0000
  C   C30       1.0  0.75623  0.27248  0.15802  1.0000
  H   H11       1.0  0.82903  0.22744  0.17865  1.0000
  H   H12       1.0  0.73598  0.28417  0.15135  1.0000
  B   B4        1.0  0.71036  0.39050  0.22980  1.0000
  O   O7        1.0  0.75306  0.23491  0.11647  1.0000
  O   O8        1.0  0.86846  0.29393  0.29280  1.0000
  C   C31       1.0  0.77279  0.71845  0.31669  1.0000
  C   C32       1.0  0.79804  0.73626  0.30781  1.0000
  C   C33       1.0  0.76320  0.75261  0.35765  1.0000
  C   C34       1.0  0.78778  0.77013  0.34876  1.0000
  C   C35       1.0  0.80523  0.76273  0.32428  1.0000
  C   C36       1.0  0.75528  0.72706  0.34215  1.0000
  C   C37       1.0  0.64636  0.55333  0.27990  1.0000
  C   C38       1.0  0.64997  0.53391  0.25508  1.0000
  C   C39       1.0  0.67397  0.53939  0.23498  1.0000
  C   C40       1.0  0.69347  0.56352  0.23937  1.0000
  C   C41       1.0  0.68979  0.58299  0.26425  1.0000
  C   C42       1.0  0.66591  0.57745  0.28441  1.0000
  H   H13       1.0  0.82400  0.77701  0.31822  1.0000
  H   H14       1.0  0.73610  0.71405  0.34969  1.0000
  H   H15       1.0  0.62825  0.54936  0.29595  1.0000
  H   H16       1.0  0.66285  0.59215  0.30384  1.0000
  H   H17       1.0  0.67759  0.52435  0.21588  1.0000
  H   H18       1.0  0.71185  0.56735  0.22360  1.0000
  B   B5        1.0  0.71140  0.60936  0.26975  1.0000
  O   O9        1.0  0.75017  0.76513  0.38320  1.0000
  O   O10       1.0  0.87277  0.70462  0.21060  1.0000
  C   C43       1.0  0.27275  0.21886  0.81621  1.0000
  C   C44       1.0  0.29789  0.23667  0.80699  1.0000
  C   C45       1.0  0.26526  0.25174  0.85861  1.0000
  C   C46       1.0  0.28986  0.26916  0.84957  1.0000
  C   C47       1.0  0.30628  0.26229  0.82424  1.0000
  C   C48       1.0  0.25634  0.22686  0.84259  1.0000
  C   C49       1.0  0.14669  0.05219  0.78022  1.0000
  C   C50       1.0  0.15093  0.03298  0.75530  1.0000
  C   C51       1.0  0.17473  0.03926  0.73522  1.0000
  C   C52       1.0  0.19349  0.06392  0.73980  1.0000
  C   C53       1.0  0.18926  0.08308  0.76482  1.0000
  C   C54       1.0  0.16553  0.07683  0.78493  1.0000
  H   H19       1.0  0.32528  0.27627  0.81818  1.0000
  H   H20       1.0  0.23724  0.21386  0.85036  1.0000
  H   H21       1.0  0.12864  0.04764  0.79620  1.0000
  H   H22       1.0  0.16206  0.09137  0.80443  1.0000
  H   H23       1.0  0.17874  0.02449  0.71598  1.0000
  H   H24       1.0  0.21175  0.06844  0.72406  1.0000
  B   B6        1.0  0.21036  0.10985  0.77008  1.0000
  O   O11       1.0  0.25306  0.26374  0.88478  1.0000
  O   O12       1.0  0.36978  0.20605  0.70744  1.0000
  C   C55       1.0  0.72522  0.28332  0.81734  1.0000
  C   C56       1.0  0.69984  0.26579  0.80835  1.0000
  C   C57       1.0  0.73281  0.25028  0.85914  1.0000
  C   C58       1.0  0.70805  0.23303  0.85027  1.0000
  C   C59       1.0  0.69145  0.24012  0.82536  1.0000
  C   C60       1.0  0.74177  0.27513  0.84329  1.0000
  H   H25       1.0  0.67266  0.22596  0.81909  1.0000
  H   H26       1.0  0.76129  0.28768  0.85063  1.0000
  B   B7        1.0  0.78917  0.39106  0.77091  1.0000
  O   O13       1.0  0.74545  0.23782  0.88461  1.0000
  O   O14       1.0  0.63185  0.29376  0.70616  1.0000
  C   C61       1.0  0.22608  0.78040  0.31601  1.0000
  C   C62       1.0  0.20031  0.76342  0.30709  1.0000
  C   C63       1.0  0.23294  0.74725  0.35786  1.0000
  C   C64       1.0  0.20744  0.73088  0.34948  1.0000
  C   C65       1.0  0.19106  0.73824  0.32446  1.0000
  C   C66       1.0  0.24258  0.77172  0.34181  1.0000
  H   H27       1.0  0.17160  0.72485  0.31854  1.0000
  H   H28       1.0  0.26258  0.78358  0.34898  1.0000
  B   B8        1.0  0.29130  0.88806  0.27125  1.0000
  O   O15       1.0  0.24541  0.73466  0.38330  1.0000
  O   O16       1.0  0.13201  0.79398  0.20588  1.0000
  C   C67       1.0  0.18410  0.22532  0.21892  1.0000
  C   C68       1.0  0.19307  0.19988  0.23623  1.0000
  C   C69       1.0  0.14156  0.23215  0.25178  1.0000
  C   C70       1.0  0.15058  0.20747  0.26895  1.0000
  C   C71       1.0  0.17581  0.19115  0.26174  1.0000
  C   C72       1.0  0.15768  0.24143  0.22707  1.0000
  C   C73       1.0  0.21977  0.35407  0.05484  1.0000
  C   C74       1.0  0.24420  0.35027  0.03498  1.0000
  C   C75       1.0  0.26443  0.32656  0.04054  1.0000
  C   C76       1.0  0.26040  0.30745  0.06500  1.0000
  C   C77       1.0  0.23584  0.31121  0.08483  1.0000
  C   C78       1.0  0.21568  0.33496  0.07935  1.0000
  H   H29       1.0  0.18186  0.17197  0.27539  1.0000
  H   H30       1.0  0.14981  0.26048  0.21421  1.0000
  H   H31       1.0  0.20362  0.37197  0.05082  1.0000
  H   H32       1.0  0.19653  0.33824  0.09434  1.0000
  H   H33       1.0  0.28334  0.32282  0.02531  1.0000
  H   H34       1.0  0.27622  0.28921  0.06878  1.0000
  B   B9        1.0  0.23070  0.28946  0.11115  1.0000
  O   O17       1.0  0.11526  0.24393  0.26374  1.0000
  O   O18       1.0  0.29255  0.12861  0.20469  1.0000
  C   C79       1.0  0.68281  0.72645  0.72029  1.0000
  C   C80       1.0  0.69042  0.70002  0.73677  1.0000
  C   C81       1.0  0.64147  0.73512  0.75408  1.0000
  C   C82       1.0  0.64832  0.70871  0.76959  1.0000
  C   C83       1.0  0.67243  0.69110  0.76169  1.0000
  C   C84       1.0  0.65799  0.74432  0.72964  1.0000
  H   H35       1.0  0.67697  0.67078  0.77423  1.0000
  H   H36       1.0  0.65166  0.76468  0.71798  1.0000
  B   B10       1.0  0.72856  0.78718  0.61035  1.0000
  O   O19       1.0  0.61645  0.74848  0.76701  1.0000
  O   O20       1.0  0.78825  0.62702  0.70474  1.0000
  C   C85       1.0  0.68285  0.27417  0.78163  1.0000
  C   C86       1.0  0.69212  0.29940  0.76403  1.0000
  C   C87       1.0  0.64201  0.26573  0.74753  1.0000
  C   C88       1.0  0.65121  0.29028  0.73019  1.0000
  C   C89       1.0  0.67565  0.30739  0.73797  1.0000
  C   C90       1.0  0.65712  0.25735  0.77300  1.0000
  C   C91       1.0  0.71747  0.14883  0.94827  1.0000
  C   C92       1.0  0.74389  0.15089  0.96537  1.0000
  C   C93       1.0  0.76499  0.17331  0.95789  1.0000
  C   C94       1.0  0.75990  0.19291  0.93410  1.0000
  C   C95       1.0  0.73345  0.19075  0.91695  1.0000
  C   C96       1.0  0.71235  0.16837  0.92439  1.0000
  H   H37       1.0  0.68171  0.32661  0.72434  1.0000
  H   H38       1.0  0.64910  0.23840  0.78601  1.0000
  H   H39       1.0  0.70069  0.13193  0.95388  1.0000
  H   H40       1.0  0.69172  0.16657  0.91147  1.0000
  H   H41       1.0  0.78543  0.17558  0.97109  1.0000
  H   H42       1.0  0.77643  0.21012  0.92867  1.0000
  B   B11       1.0  0.72781  0.21235  0.89080  1.0000
  O   O21       1.0  0.61657  0.25308  0.73493  1.0000
  O   O22       1.0  0.79089  0.37122  0.79537  1.0000
  C   C97       1.0  0.18364  0.77212  0.28025  1.0000
  C   C98       1.0  0.19341  0.79727  0.26275  1.0000
  C   C99       1.0  0.14236  0.76489  0.24638  1.0000
  C   C100      1.0  0.15178  0.78961  0.22941  1.0000
  C   C101      1.0  0.17693  0.80582  0.23687  1.0000
  C   C102      1.0  0.15766  0.75576  0.27149  1.0000
  C   C103      1.0  0.21704  0.64561  0.44698  1.0000
  C   C104      1.0  0.24263  0.64874  0.46517  1.0000
  C   C105      1.0  0.26306  0.67204  0.45848  1.0000
  C   C106      1.0  0.25809  0.69146  0.43451  1.0000
  C   C107      1.0  0.23238  0.68836  0.41638  1.0000
  C   C108      1.0  0.21198  0.66508  0.42300  1.0000
  H   H43       1.0  0.18345  0.82482  0.22314  1.0000
  H   H44       1.0  0.14957  0.73653  0.28405  1.0000
  H   H45       1.0  0.20078  0.62800  0.45189  1.0000
  H   H46       1.0  0.19195  0.66242  0.40931  1.0000
  H   H47       1.0  0.28282  0.67525  0.47248  1.0000
  H   H48       1.0  0.27408  0.70935  0.42972  1.0000
  B   B12       1.0  0.22688  0.70997  0.39015  1.0000
  O   O23       1.0  0.11655  0.75294  0.23387  1.0000
  O   O24       1.0  0.29243  0.86812  0.29561  1.0000
  C   C109      1.0  0.31743  0.77303  0.71744  1.0000
  C   C110      1.0  0.30787  0.79843  0.73488  1.0000
  C   C111      1.0  0.35912  0.76650  0.75088  1.0000
  C   C112      1.0  0.35009  0.79180  0.76747  1.0000
  C   C113      1.0  0.32488  0.80783  0.76017  1.0000
  C   C114      1.0  0.34349  0.75681  0.72607  1.0000
  H   H49       1.0  0.31868  0.82721  0.77370  1.0000
  H   H50       1.0  0.35117  0.73717  0.71369  1.0000
  B   B13       1.0  0.27411  0.71025  0.60733  1.0000
  O   O25       1.0  0.38480  0.75457  0.76360  1.0000
  O   O26       1.0  0.20614  0.86665  0.70602  1.0000
  C   C115      1.0  0.81674  0.27375  0.21800  1.0000
  C   C116      1.0  0.80743  0.29895  0.23585  1.0000
  C   C117      1.0  0.85799  0.26573  0.25147  1.0000
  C   C118      1.0  0.84893  0.29039  0.26895  1.0000
  C   C119      1.0  0.82405  0.30708  0.26185  1.0000
  C   C120      1.0  0.84249  0.25696  0.22633  1.0000
  H   H51       1.0  0.81769  0.32586  0.27614  1.0000
  H   H52       1.0  0.85006  0.23753  0.21358  1.0000
  B   B14       1.0  0.77232  0.21104  0.10858  1.0000
  O   O27       1.0  0.88343  0.25304  0.26384  1.0000
  O   O28       1.0  0.70766  0.36970  0.20603  1.0000
  C   C121      1.0  0.81653  0.72711  0.28211  1.0000
  C   C122      1.0  0.80911  0.70056  0.26547  1.0000
  C   C123      1.0  0.85899  0.73505  0.24950  1.0000
  C   C124      1.0  0.85194  0.70884  0.23347  1.0000
  C   C125      1.0  0.82750  0.69147  0.24081  1.0000
  C   C126      1.0  0.84203  0.74443  0.27368  1.0000
  H   H53       1.0  0.82274  0.67138  0.22780  1.0000
  H   H54       1.0  0.84849  0.76459  0.28585  1.0000
  B   B15       1.0  0.76789  0.79048  0.38982  1.0000
  O   O29       1.0  0.88431  0.74827  0.23693  1.0000
  O   O30       1.0  0.70871  0.62971  0.29394  1.0000
  C   C127      1.0  0.31520  0.22821  0.78024  1.0000
  C   C128      1.0  0.30730  0.20178  0.76359  1.0000
  C   C129      1.0  0.35659  0.23664  0.74639  1.0000
  C   C130      1.0  0.34934  0.21030  0.73064  1.0000
  C   C131      1.0  0.32516  0.19281  0.73852  1.0000
  C   C132      1.0  0.34017  0.24590  0.77097  1.0000
  H   H55       1.0  0.32035  0.17261  0.72567  1.0000
  H   H56       1.0  0.34661  0.26626  0.78278  1.0000
  B   B16       1.0  0.27092  0.28901  0.89136  1.0000
  O   O31       1.0  0.38168  0.24983  0.73336  1.0000
  O   O32       1.0  0.20763  0.13042  0.79403  1.0000
  C   C133      1.0  0.21961  0.18262  0.22728  1.0000
  C   C134      1.0  0.23607  0.19056  0.20074  1.0000
  C   C135      1.0  0.25352  0.14152  0.23527  1.0000
  C   C136      1.0  0.26926  0.14885  0.20897  1.0000
  C   C137      1.0  0.26125  0.17300  0.19162  1.0000
  C   C138      1.0  0.22893  0.15767  0.24472  1.0000
  H   H57       1.0  0.27415  0.17812  0.17153  1.0000
  H   H58       1.0  0.21723  0.15111  0.26510  1.0000
  B   B17       1.0  0.10866  0.22587  0.28883  1.0000
  O   O33       1.0  0.26662  0.11665  0.24843  1.0000
  O   O34       1.0  0.20751  0.29249  0.13256  1.0000
  C   C139      1.0  0.71647  0.68209  0.72776  1.0000
  C   C140      1.0  0.73287  0.68963  0.70109  1.0000
  C   C141      1.0  0.75000  0.64073  0.73597  1.0000
  C   C142      1.0  0.76521  0.64739  0.70917  1.0000
  C   C143      1.0  0.75748  0.67149  0.69171  1.0000
  C   C144      1.0  0.72575  0.65735  0.74555  1.0000
  C   C145      1.0  0.54837  0.71779  0.85258  1.0000
  C   C146      1.0  0.53185  0.74469  0.85123  1.0000
  C   C147      1.0  0.54050  0.76649  0.82994  1.0000
  C   C148      1.0  0.56489  0.76163  0.81077  1.0000
  C   C149      1.0  0.58139  0.73463  0.81205  1.0000
  C   C150      1.0  0.57274  0.71280  0.83327  1.0000
  H   H59       1.0  0.77037  0.67628  0.67155  1.0000
  H   H60       1.0  0.71449  0.65153  0.76640  1.0000
  H   H61       1.0  0.54200  0.70063  0.86881  1.0000
  H   H62       1.0  0.58522  0.69179  0.83447  1.0000
  H   H63       1.0  0.52789  0.78741  0.82836  1.0000
  H   H64       1.0  0.57136  0.77876  0.79457  1.0000
  B   B18       1.0  0.60809  0.72930  0.79072  1.0000
  O   O35       1.0  0.76360  0.61633  0.74959  1.0000
  O   O36       1.0  0.70581  0.79112  0.63201  1.0000
  C   C151      1.0  0.78271  0.68288  0.27387  1.0000
  C   C152      1.0  0.76500  0.69156  0.29944  1.0000
  C   C153      1.0  0.74928  0.64140  0.26509  1.0000
  C   C154      1.0  0.73237  0.64956  0.29048  1.0000
  C   C155      1.0  0.73953  0.67416  0.30776  1.0000
  C   C156      1.0  0.77437  0.65726  0.25659  1.0000
  C   C157      1.0  0.94919  0.71827  0.14835  1.0000
  C   C158      1.0  0.96736  0.74404  0.15060  1.0000
  C   C159      1.0  0.96107  0.76494  0.17378  1.0000
  C   C160      1.0  0.93725  0.76042  0.19376  1.0000
  C   C161      1.0  0.91899  0.73462  0.19136  1.0000
  C   C162      1.0  0.92540  0.71363  0.16838  1.0000
  H   H65       1.0  0.72555  0.67986  0.32699  1.0000
  H   H66       1.0  0.78703  0.65005  0.23693  1.0000
  H   H67       1.0  0.95391  0.70161  0.13093  1.0000
  H   H68       1.0  0.91163  0.69351  0.16641  1.0000
  H   H69       1.0  0.97520  0.78477  0.17639  1.0000
  H   H70       1.0  0.93273  0.77681  0.21149  1.0000
  B   B19       1.0  0.89249  0.72925  0.21290  1.0000
  O   O37       1.0  0.73639  0.61642  0.25160  1.0000
  O   O38       1.0  0.79094  0.79409  0.36840  1.0000
  C   C163      1.0  0.28103  0.18410  0.77245  1.0000
  C   C164      1.0  0.26402  0.19250  0.79854  1.0000
  C   C165      1.0  0.24768  0.14235  0.76447  1.0000
  C   C166      1.0  0.23114  0.15048  0.79011  1.0000
  C   C167      1.0  0.23863  0.17513  0.80722  1.0000
  C   C168      1.0  0.27223  0.15863  0.75515  1.0000
  H   H71       1.0  0.22515  0.18083  0.82679  1.0000
  H   H72       1.0  0.28416  0.15195  0.73487  1.0000
  B   B20       1.0  0.38961  0.23057  0.70938  1.0000
  O   O39       1.0  0.23504  0.11693  0.75155  1.0000
  O   O40       1.0  0.29388  0.29255  0.86979  1.0000
  C   C169      1.0  0.71830  0.31704  0.77297  1.0000
  C   C170      1.0  0.73436  0.30937  0.79962  1.0000
  C   C171      1.0  0.75215  0.35833  0.76481  1.0000
  C   C172      1.0  0.76763  0.35102  0.79110  1.0000
  C   C173      1.0  0.75937  0.32705  0.80865  1.0000
  C   C174      1.0  0.72780  0.34192  0.75535  1.0000
  H   H73       1.0  0.77194  0.32224  0.82887  1.0000
  H   H74       1.0  0.71640  0.34821  0.73484  1.0000
  B   B21       1.0  0.61039  0.27077  0.70959  1.0000
  O   O41       1.0  0.76531  0.38332  0.75169  1.0000
  O   O42       1.0  0.70451  0.20914  0.86981  1.0000
  C   C175      1.0  0.21986  0.81449  0.27181  1.0000
  C   C176      1.0  0.23556  0.80651  0.29856  1.0000
  C   C177      1.0  0.25433  0.85538  0.26420  1.0000
  C   C178      1.0  0.26918  0.84800  0.29082  1.0000
  C   C179      1.0  0.26047  0.82403  0.30811  1.0000
  C   C180      1.0  0.22989  0.83930  0.25436  1.0000
  H   H75       1.0  0.27253  0.81915  0.32860  1.0000
  H   H76       1.0  0.21877  0.84574  0.23374  1.0000
  B   B22       1.0  0.11039  0.77114  0.20889  1.0000
  O   O43       1.0  0.26800  0.88027  0.25144  1.0000
  O   O44       1.0  0.20306  0.70756  0.36961  1.0000
  C   C181      1.0  0.28084  0.81490  0.72657  1.0000
  C   C182      1.0  0.26399  0.80597  0.70076  1.0000
  C   C183      1.0  0.24625  0.85540  0.73521  1.0000
  C   C184      1.0  0.22992  0.84695  0.70973  1.0000
  C   C185      1.0  0.23806  0.82257  0.69244  1.0000
  C   C186      1.0  0.27127  0.83993  0.74414  1.0000
  C   C187      1.0  0.44704  0.78481  0.85307  1.0000
  C   C188      1.0  0.46596  0.75963  0.85004  1.0000
  C   C189      1.0  0.46055  0.73936  0.82619  1.0000
  C   C190      1.0  0.43677  0.74380  0.80645  1.0000
  C   C191      1.0  0.41763  0.76886  0.80973  1.0000
  C   C192      1.0  0.42327  0.78935  0.83328  1.0000
  H   H77       1.0  0.22482  0.81661  0.67291  1.0000
  H   H78       1.0  0.28303  0.84718  0.76418  1.0000
  H   H79       1.0  0.45115  0.80112  0.87091  1.0000
  H   H80       1.0  0.40892  0.80900  0.83595  1.0000
  H   H81       1.0  0.47538  0.72014  0.82284  1.0000
  H   H82       1.0  0.43291  0.72787  0.78822  1.0000
  B   B23       1.0  0.39117  0.77343  0.78826  1.0000
  O   O45       1.0  0.23321  0.88053  0.74834  1.0000
  O   O46       1.0  0.29849  0.70880  0.62724  1.0000
  C   C193      1.0  0.78104  0.31634  0.22723  1.0000
  C   C194      1.0  0.76426  0.30788  0.20118  1.0000
  C   C195      1.0  0.74740  0.35781  0.23552  1.0000
  C   C196      1.0  0.73105  0.34962  0.20995  1.0000
  C   C197      1.0  0.73889  0.32518  0.19261  1.0000
  C   C198      1.0  0.77214  0.34184  0.24452  1.0000
  H   H83       1.0  0.72585  0.31979  0.17278  1.0000
  H   H84       1.0  0.78435  0.34898  0.26434  1.0000
  B   B24       1.0  0.88968  0.27071  0.28940  1.0000
  O   O47       1.0  0.73476  0.38332  0.24840  1.0000
  O   O48       1.0  0.79657  0.20910  0.12867  1.0000
  C   C199      1.0  0.46841  0.47561  0.43251  1.0000
  C   C200      1.0  0.48506  0.44932  0.44035  1.0000
  C   C201      1.0  0.50195  0.48368  0.39071  1.0000
  C   C202      1.0  0.51765  0.45742  0.39784  1.0000
  C   C203      1.0  0.50988  0.44018  0.42222  1.0000
  C   C204      1.0  0.47759  0.49312  0.40739  1.0000
  C   C205      1.0  0.30296  0.60212  0.46742  1.0000
  C   C206      1.0  0.28272  0.59834  0.49153  1.0000
  C   C207      1.0  0.28741  0.57418  0.51137  1.0000
  C   C208      1.0  0.31153  0.55456  0.50737  1.0000
  C   C209      1.0  0.33176  0.55833  0.48318  1.0000
  C   C210      1.0  0.32706  0.58244  0.46329  1.0000
  H   H85       1.0  0.52278  0.42016  0.42715  1.0000
  H   H86       1.0  0.46605  0.51364  0.40123  1.0000
  H   H87       1.0  0.29964  0.62046  0.45165  1.0000
  H   H88       1.0  0.34243  0.58561  0.44442  1.0000
  H   H89       1.0  0.27180  0.57055  0.52997  1.0000
  H   H90       1.0  0.31479  0.53601  0.52291  1.0000
  B   B25       1.0  0.35830  0.53677  0.47832  1.0000
  O   O49       1.0  0.51499  0.49683  0.36559  1.0000
  O   O50       1.0  0.45890  0.38195  0.54379  1.0000
  C   C211      1.0  0.96809  0.97420  0.93042  1.0000
  C   C212      1.0  0.98586  0.94937  0.94033  1.0000
  C   C213      1.0  0.00236  0.98147  0.88915  1.0000
  C   C214      1.0  0.01965  0.95703  0.89865  1.0000
  C   C215      1.0  0.01205  0.94089  0.92386  1.0000
  C   C216      1.0  0.97689  0.99035  0.90431  1.0000
  C   C217      1.0  0.80185  0.10266  0.96451  1.0000
  C   C218      1.0  0.78399  0.10032  0.99061  1.0000
  C   C219      1.0  0.79089  0.07748  0.01135  1.0000
  C   C220      1.0  0.81500  0.05806  0.00641  1.0000
  C   C221      1.0  0.83303  0.06056  0.98035  1.0000
  C   C222      1.0  0.82590  0.08310  0.95942  1.0000
  H   H91       1.0  0.02600  0.92216  0.93067  1.0000
  H   H92       1.0  0.96430  0.00949  0.89621  1.0000
  H   H93       1.0  0.79674  0.11985  0.94795  1.0000
  H   H94       1.0  0.83931  0.08520  0.93899  1.0000
  H   H95       1.0  0.77707  0.07475  0.03146  1.0000
  H   H96       1.0  0.81998  0.04062  0.02271  1.0000
  B   B26       1.0  0.85969  0.03913  0.97521  1.0000
  O   O51       1.0  0.01523  0.99384  0.86365  1.0000
  O   O52       1.0  0.95325  0.88024  0.04086  1.0000
  C   C223      1.0  0.03165  0.52232  0.93385  1.0000
  C   C224      1.0  0.01537  0.54891  0.94192  1.0000
  C   C225      1.0  0.99814  0.51444  0.89234  1.0000
  C   C226      1.0  0.98286  0.54102  0.89964  1.0000
  C   C227      1.0  0.99080  0.55834  0.92400  1.0000
  C   C228      1.0  0.02237  0.50482  0.90870  1.0000
  H   H97       1.0  0.97851  0.57885  0.92885  1.0000
  H   H98       1.0  0.03395  0.48436  0.90210  1.0000
  B   B27       1.0  0.14051  0.45950  0.97834  1.0000
  O   O53       1.0  0.98518  0.50146  0.86712  1.0000
  O   O54       1.0  0.04680  0.62114  0.04091  1.0000
  C   C229      1.0  0.53218  0.02101  0.43472  1.0000
  C   C230      1.0  0.51556  0.04736  0.44290  1.0000
  C   C231      1.0  0.49781  0.01199  0.39423  1.0000
  C   C232      1.0  0.48212  0.03826  0.40175  1.0000
  C   C233      1.0  0.49027  0.05602  0.42566  1.0000
  C   C234      1.0  0.52265  0.00304  0.41001  1.0000
  C   C235      1.0  0.69948  0.89595  0.46915  1.0000
  C   C236      1.0  0.71733  0.89900  0.49501  1.0000
  C   C237      1.0  0.71053  0.92243  0.51542  1.0000
  C   C238      1.0  0.68670  0.94200  0.51022  1.0000
  C   C239      1.0  0.66877  0.93883  0.48436  1.0000
  C   C240      1.0  0.67556  0.91548  0.46393  1.0000
  H   H99       1.0  0.47757  0.07625  0.43059  1.0000
  H   H100      1.0  0.53448  0.98278  0.40321  1.0000
  H   H101      1.0  0.70456  0.87827  0.45289  1.0000
  H   H102      1.0  0.66209  0.91283  0.44373  1.0000
  H   H103      1.0  0.72426  0.92556  0.53540  1.0000
  H   H104      1.0  0.68180  0.96000  0.52620  1.0000
  B   B28       1.0  0.64244  0.96029  0.47864  1.0000
  O   O55       1.0  0.48459  0.99860  0.36940  1.0000
  O   O56       1.0  0.54696  0.12086  0.54083  1.0000
  C   C241      1.0  0.96772  0.02393  0.56730  1.0000
  C   C242      1.0  0.98501  0.04931  0.55782  1.0000
  C   C243      1.0  0.00191  0.01649  0.60815  1.0000
  C   C244      1.0  0.01875  0.04139  0.59893  1.0000
  C   C245      1.0  0.01085  0.05803  0.57430  1.0000
  C   C246      1.0  0.97657  0.00750  0.59311  1.0000
  H   H105      1.0  0.02426  0.07741  0.56817  1.0000
  H   H106      1.0  0.96395  0.98827  0.60114  1.0000
  B   B29       1.0  0.85902  0.95993  0.52371  1.0000
  O   O57       1.0  0.01492  0.00424  0.63349  1.0000
  O   O58       1.0  0.95298  0.11960  0.45854  1.0000
  C   C247      1.0  0.46797  0.52496  0.06615  1.0000
  C   C248      1.0  0.48484  0.55104  0.05790  1.0000
  C   C249      1.0  0.50208  0.51629  0.10687  1.0000
  C   C250      1.0  0.51856  0.54184  0.09879  1.0000
  C   C251      1.0  0.51070  0.55923  0.07466  1.0000
  C   C252      1.0  0.47714  0.50740  0.09112  1.0000
  C   C253      1.0  0.30207  0.39846  0.03307  1.0000
  C   C254      1.0  0.28330  0.40089  0.00784  1.0000
  C   C255      1.0  0.28957  0.42369  0.98678  1.0000
  C   C256      1.0  0.31390  0.44306  0.99057  1.0000
  C   C257      1.0  0.33277  0.44054  0.01581  1.0000
  C   C258      1.0  0.32632  0.41797  0.03702  1.0000
  H   H107      1.0  0.52435  0.57854  0.06881  1.0000
  H   H108      1.0  0.46525  0.48722  0.09781  1.0000
  H   H109      1.0  0.29752  0.38128  0.04985  1.0000
  H   H110      1.0  0.34045  0.41583  0.05678  1.0000
  H   H111      1.0  0.27503  0.42643  0.96735  1.0000
  H   H112      1.0  0.31836  0.46046  0.97400  1.0000
  B   B30       1.0  0.35963  0.46177  0.02038  1.0000
  O   O59       1.0  0.51515  0.50306  0.13174  1.0000
  O   O60       1.0  0.45452  0.62256  0.95903  1.0000
  C   C259      1.0  0.53170  0.98002  0.06662  1.0000
  C   C260      1.0  0.51499  0.95384  0.05827  1.0000
  C   C261      1.0  0.49877  0.98740  0.10900  1.0000
  C   C262      1.0  0.48235  0.96184  0.10071  1.0000
  C   C263      1.0  0.48972  0.94502  0.07577  1.0000
  C   C264      1.0  0.52313  0.99690  0.09253  1.0000
  H   H113      1.0  0.47620  0.92560  0.06997  1.0000
  H   H114      1.0  0.53512  0.01698  0.09944  1.0000
  B   B31       1.0  0.63794  0.04497  0.01762  1.0000
  O   O61       1.0  0.48629  0.99991  0.13481  1.0000
  O   O62       1.0  0.54688  0.88180  0.95907  1.0000
  C   C265      1.0  0.03231  0.47531  0.56734  1.0000
  C   C266      1.0  0.01417  0.45055  0.55774  1.0000
  C   C267      1.0  0.99860  0.48388  0.60887  1.0000
  C   C268      1.0  0.98041  0.46015  0.59907  1.0000
  C   C269      1.0  0.98760  0.44327  0.57406  1.0000
  C   C270      1.0  0.02425  0.49184  0.59361  1.0000
  C   C271      1.0  0.19820  0.60245  0.53192  1.0000
  C   C272      1.0  0.21645  0.59946  0.50614  1.0000
  C   C273      1.0  0.20943  0.57661  0.48522  1.0000
  C   C274      1.0  0.18494  0.55763  0.48977  1.0000
  C   C275      1.0  0.16665  0.56064  0.51562  1.0000
  C   C276      1.0  0.17374  0.58336  0.53661  1.0000
  H   H115      1.0  0.97293  0.42504  0.56723  1.0000
  H   H116      1.0  0.03764  0.51045  0.60185  1.0000
  H   H117      1.0  0.20335  0.61973  0.54856  1.0000
  H   H118      1.0  0.15997  0.58588  0.55678  1.0000
  H   H119      1.0  0.22349  0.57352  0.46530  1.0000
  H   H120      1.0  0.17987  0.54016  0.47333  1.0000
  B   B32       1.0  0.14001  0.53928  0.52080  1.0000
  O   O63       1.0  0.98623  0.49671  0.63459  1.0000
  O   O64       1.0  0.04544  0.37907  0.45758  1.0000
  C   C277      1.0  0.47683  0.43227  0.46720  1.0000
  C   C278      1.0  0.45178  0.44153  0.48531  1.0000
  C   C279      1.0  0.48584  0.39164  0.50135  1.0000
  C   C280      1.0  0.46168  0.40101  0.51937  1.0000
  C   C281      1.0  0.44455  0.42552  0.51200  1.0000
  C   C282      1.0  0.49394  0.40675  0.47569  1.0000
  H   H121      1.0  0.42606  0.43211  0.52657  1.0000
  H   H122      1.0  0.51312  0.39905  0.46264  1.0000
  B   B33       1.0  0.53895  0.47773  0.35759  1.0000
  O   O65       1.0  0.49870  0.36629  0.51378  1.0000
  O   O66       1.0  0.37895  0.53946  0.45447  1.0000
  C   C283      1.0  0.97680  0.93266  0.96715  1.0000
  C   C284      1.0  0.95053  0.94147  0.98367  1.0000
  C   C285      1.0  0.98419  0.89197  0.00173  1.0000
  C   C286      1.0  0.95797  0.90006  0.01733  1.0000
  C   C287      1.0  0.94099  0.92435  0.00891  1.0000
  C   C288      1.0  0.99385  0.90752  0.97685  1.0000
  C   C289      1.0  0.10623  0.96812  0.80112  1.0000
  C   C290      1.0  0.10112  0.99226  0.78145  1.0000
  C   C291      1.0  0.07630  0.01113  0.78720  1.0000
  C   C292      1.0  0.05734  0.00609  0.81171  1.0000
  C   C293      1.0  0.06243  0.98183  0.83134  1.0000
  C   C294      1.0  0.08723  0.96296  0.82565  1.0000
  H   H123      1.0  0.92062  0.92977  0.02130  1.0000
  H   H124      1.0  0.01402  0.90025  0.96516  1.0000
  H   H125      1.0  0.12505  0.95303  0.79695  1.0000
  H   H126      1.0  0.09149  0.94407  0.84051  1.0000
  H   H127      1.0  0.07160  0.02970  0.77205  1.0000
  H   H128      1.0  0.03825  0.02088  0.81577  1.0000
  B   B34       1.0  0.04087  0.97621  0.85780  1.0000
  O   O67       1.0  0.99686  0.86697  0.01515  1.0000
  O   O68       1.0  0.87891  0.03948  0.94999  1.0000
  C   C295      1.0  0.52409  0.93606  0.03204  1.0000
  C   C296      1.0  0.54903  0.94551  0.01401  1.0000
  C   C297      1.0  0.51777  0.89312  0.99977  1.0000
  C   C298      1.0  0.54241  0.90217  0.98234  1.0000
  C   C299      1.0  0.55819  0.92788  0.98884  1.0000
  C   C300      1.0  0.50835  0.90930  0.02445  1.0000
  C   C301      1.0  0.39854  0.96767  0.19932  1.0000
  C   C302      1.0  0.40105  0.99266  0.21865  1.0000
  C   C303      1.0  0.42395  0.01382  0.21285  1.0000
  C   C304      1.0  0.44340  0.01031  0.18840  1.0000
  C   C305      1.0  0.44069  0.98536  0.16895  1.0000
  C   C306      1.0  0.41803  0.96406  0.17488  1.0000
  H   H129      1.0  0.57722  0.93408  0.97487  1.0000
  H   H130      1.0  0.48932  0.90133  0.03748  1.0000
  H   H131      1.0  0.38127  0.95086  0.20358  1.0000
  H   H132      1.0  0.41585  0.94452  0.16019  1.0000
  H   H133      1.0  0.42667  0.03313  0.22776  1.0000
  H   H134      1.0  0.46092  0.02687  0.18419  1.0000
  B   B35       1.0  0.46187  0.98114  0.14197  1.0000
  O   O69       1.0  0.50590  0.86692  0.98782  1.0000
  O   O70       1.0  0.61823  0.04701  0.04241  1.0000
  C   C307      1.0  0.02313  0.43286  0.53132  1.0000
  C   C308      1.0  0.04913  0.44136  0.51425  1.0000
  C   C309      1.0  0.01567  0.39098  0.49767  1.0000
  C   C310      1.0  0.04117  0.39925  0.48109  1.0000
  C   C311      1.0  0.05799  0.42400  0.48875  1.0000
  C   C312      1.0  0.00637  0.40705  0.52257  1.0000
  C   C313      1.0  0.89419  0.47102  0.69601  1.0000
  C   C314      1.0  0.89976  0.49394  0.71717  1.0000
  C   C315      1.0  0.92500  0.51258  0.71272  1.0000
  C   C316      1.0  0.94398  0.50846  0.68799  1.0000
  C   C317      1.0  0.93848  0.48540  0.66686  1.0000
  C   C318      1.0  0.91322  0.46680  0.67128  1.0000
  H   H135      1.0  0.07761  0.42970  0.47540  1.0000
  H   H136      1.0  0.98668  0.39976  0.53502  1.0000
  H   H137      1.0  0.87500  0.45615  0.69913  1.0000
  H   H138      1.0  0.90870  0.44883  0.65523  1.0000
  H   H139      1.0  0.92996  0.53022  0.72905  1.0000
  H   H140      1.0  0.96340  0.52304  0.68501  1.0000
  B   B36       1.0  0.95991  0.48006  0.64015  1.0000
  O   O71       1.0  0.00312  0.36539  0.48492  1.0000
  O   O72       1.0  0.12006  0.54101  0.54541  1.0000
  C   C319      1.0  0.02423  0.56648  0.96831  1.0000
  C   C320      1.0  0.05042  0.55827  0.98487  1.0000
  C   C321      1.0  0.01638  0.60818  0.00202  1.0000
  C   C322      1.0  0.04246  0.60066  0.01773  1.0000
  C   C323      1.0  0.05953  0.57609  0.00986  1.0000
  C   C324      1.0  0.00688  0.59172  0.97764  1.0000
  C   C325      1.0  0.89759  0.53268  0.80286  1.0000
  C   C326      1.0  0.90033  0.50748  0.78378  1.0000
  C   C327      1.0  0.92361  0.48680  0.78944  1.0000
  C   C328      1.0  0.94314  0.49091  0.81351  1.0000
  C   C329      1.0  0.94027  0.51609  0.83269  1.0000
  C   C330      1.0  0.91723  0.53694  0.82688  1.0000
  H   H141      1.0  0.07936  0.57075  0.02283  1.0000
  H   H142      1.0  0.98642  0.59814  0.96624  1.0000
  H   H143      1.0  0.88010  0.54923  0.79871  1.0000
  H   H144      1.0  0.91487  0.55664  0.84133  1.0000
  H   H145      1.0  0.92662  0.46747  0.77457  1.0000
  H   H146      1.0  0.96092  0.47463  0.81749  1.0000
  B   B37       1.0  0.96171  0.52094  0.85922  1.0000
  O   O73       1.0  0.00328  0.63333  0.01512  1.0000
  O   O74       1.0  0.11886  0.45598  0.95574  1.0000
  C   C331      1.0  0.52466  0.06545  0.46879  1.0000
  C   C332      1.0  0.55131  0.05793  0.48488  1.0000
  C   C333      1.0  0.51649  0.10720  0.50227  1.0000
  C   C334      1.0  0.54289  0.10025  0.51771  1.0000
  C   C335      1.0  0.56039  0.07603  0.50969  1.0000
  C   C336      1.0  0.50699  0.09047  0.47809  1.0000
  C   C337      1.0  0.39740  0.03050  0.30463  1.0000
  C   C338      1.0  0.40013  0.00542  0.28541  1.0000
  C   C339      1.0  0.42284  0.98424  0.29150  1.0000
  C   C340      1.0  0.44199  0.98787  0.31595  1.0000
  C   C341      1.0  0.43925  0.01304  0.33517  1.0000
  C   C342      1.0  0.41663  0.03428  0.32906  1.0000
  H   H147      1.0  0.58049  0.07117  0.52242  1.0000
  H   H148      1.0  0.48631  0.09648  0.46687  1.0000
  H   H149      1.0  0.38024  0.04732  0.30027  1.0000
  H   H150      1.0  0.41428  0.05394  0.34358  1.0000
  H   H151      1.0  0.42569  0.96482  0.27673  1.0000
  H   H152      1.0  0.45937  0.97124  0.32024  1.0000
  B   B38       1.0  0.46064  0.01774  0.36179  1.0000
  O   O75       1.0  0.50311  0.13216  0.51534  1.0000
  O   O76       1.0  0.62090  0.95630  0.45597  1.0000
  C   C343      1.0  0.97599  0.06631  0.53134  1.0000
  C   C344      1.0  0.94942  0.05809  0.51535  1.0000
  C   C345      1.0  0.98391  0.10705  0.49695  1.0000
  C   C346      1.0  0.95746  0.09952  0.48181  1.0000
  C   C347      1.0  0.94022  0.07532  0.49017  1.0000
  C   C348      1.0  0.99357  0.09107  0.52140  1.0000
  C   C349      1.0  0.10511  0.03190  0.69562  1.0000
  C   C350      1.0  0.10091  0.00729  0.71496  1.0000
  C   C351      1.0  0.07657  0.98778  0.70939  1.0000
  C   C352      1.0  0.05732  0.99256  0.68527  1.0000
  C   C353      1.0  0.06161  0.01718  0.66586  1.0000
  C   C354      1.0  0.08580  0.03680  0.67149  1.0000
  H   H153      1.0  0.92020  0.06986  0.47750  1.0000
  H   H154      1.0  0.01426  0.09751  0.53242  1.0000
  H   H155      1.0  0.12351  0.04750  0.69964  1.0000
  H   H156      1.0  0.08927  0.05611  0.65693  1.0000
  H   H157      1.0  0.07250  0.96886  0.72434  1.0000
  H   H158      1.0  0.03861  0.97731  0.68139  1.0000
  B   B39       1.0  0.04007  0.02235  0.63950  1.0000
  O   O77       1.0  0.99697  0.13183  0.48340  1.0000
  O   O78       1.0  0.88013  0.95748  0.54698  1.0000
  C   C355      1.0  0.47554  0.56908  0.03222  1.0000
  C   C356      1.0  0.45082  0.55953  0.01409  1.0000
  C   C357      1.0  0.48221  0.61212  0.00043  1.0000
  C   C358      1.0  0.45839  0.60248  0.98237  1.0000
  C   C359      1.0  0.44245  0.57679  0.98866  1.0000
  C   C360      1.0  0.49108  0.59608  0.02515  1.0000
  H   H159      1.0  0.42392  0.57036  0.97429  1.0000
  H   H160      1.0  0.50955  0.60423  0.03871  1.0000
  B   B40       1.0  0.53993  0.52139  0.13863  1.0000
  O   O79       1.0  0.49387  0.63866  0.98906  1.0000
  O   O80       1.0  0.37894  0.46058  0.04529  1.0000
  C   C361      1.0  0.43364  0.46730  0.47628  1.0000
  C   C362      1.0  0.44196  0.48421  0.45023  1.0000
  C   C363      1.0  0.39122  0.49991  0.48407  1.0000
  C   C364      1.0  0.39937  0.51641  0.45856  1.0000
  C   C365      1.0  0.42412  0.50912  0.44144  1.0000
  C   C366      1.0  0.40768  0.47551  0.49321  1.0000
  C   C367      1.0  0.47054  0.30418  0.60439  1.0000
  C   C368      1.0  0.49418  0.28367  0.59972  1.0000
  C   C369      1.0  0.51382  0.28851  0.57522  1.0000
  C   C370      1.0  0.51014  0.31308  0.55624  1.0000
  C   C371      1.0  0.48651  0.33366  0.56101  1.0000
  C   C372      1.0  0.46676  0.32875  0.58538  1.0000
  H   H161      1.0  0.42934  0.52225  0.42162  1.0000
  H   H162      1.0  0.40051  0.46297  0.51284  1.0000
  H   H163      1.0  0.45478  0.30071  0.62287  1.0000
  H   H164      1.0  0.44822  0.34427  0.58923  1.0000
  H   H165      1.0  0.53195  0.27262  0.57078  1.0000
  H   H166      1.0  0.52551  0.31637  0.53741  1.0000
  B   B41       1.0  0.48167  0.36039  0.53984  1.0000
  O   O81       1.0  0.36543  0.51219  0.49678  1.0000
  O   O82       1.0  0.54083  0.45315  0.37730  1.0000
  C   C373      1.0  0.93338  0.96784  0.97442  1.0000
  C   C374      1.0  0.94137  0.98333  0.94742  1.0000
  C   C375      1.0  0.89253  0.00236  0.98210  1.0000
  C   C376      1.0  0.89938  0.01657  0.95488  1.0000
  C   C377      1.0  0.92351  0.00784  0.93750  1.0000
  C   C378      1.0  0.90877  0.97820  0.99216  1.0000
  C   C379      1.0  0.96707  0.80258  0.10319  1.0000
  C   C380      1.0  0.99271  0.78433  0.09993  1.0000
  C   C381      1.0  0.01335  0.79125  0.07679  1.0000
  C   C382      1.0  0.00862  0.81559  0.05779  1.0000
  C   C383      1.0  0.98284  0.83379  0.06098  1.0000
  C   C384      1.0  0.96220  0.82686  0.08405  1.0000
  H   H167      1.0  0.92841  0.01967  0.91678  1.0000
  H   H168      1.0  0.90276  0.96779  0.01336  1.0000
  H   H169      1.0  0.95068  0.79756  0.12072  1.0000
  H   H170      1.0  0.94213  0.84059  0.08681  1.0000
  H   H171      1.0  0.03318  0.77724  0.07350  1.0000
  H   H172      1.0  0.02485  0.82059  0.04011  1.0000
  B   B42       1.0  0.97757  0.86007  0.03934  1.0000
  O   O83       1.0  0.86803  0.01641  0.99540  1.0000
  O   O84       1.0  0.04378  0.95315  0.87912  1.0000
  C   C385      1.0  0.93196  0.03193  0.52480  1.0000
  C   C386      1.0  0.94112  0.01493  0.55040  1.0000
  C   C387      1.0  0.89055  0.99804  0.51784  1.0000
  C   C388      1.0  0.89957  0.98142  0.54286  1.0000
  C   C389      1.0  0.92433  0.98928  0.55935  1.0000
  C   C390      1.0  0.90605  0.02303  0.50846  1.0000
  H   H173      1.0  0.93052  0.97582  0.57860  1.0000
  H   H174      1.0  0.89830  0.03525  0.48896  1.0000
  B   B43       1.0  0.97754  0.13943  0.45981  1.0000
  O   O85       1.0  0.86515  0.98500  0.50559  1.0000
  O   O86       1.0  0.04267  0.04550  0.61825  1.0000
  C   C391      1.0  0.43386  0.53255  0.02221  1.0000
  C   C392      1.0  0.44163  0.51624  0.04871  1.0000
  C   C393      1.0  0.39295  0.49827  0.01379  1.0000
  C   C394      1.0  0.39968  0.48330  0.04055  1.0000
  C   C395      1.0  0.42370  0.49150  0.05800  1.0000
  C   C396      1.0  0.40925  0.52278  0.00440  1.0000
  H   H175      1.0  0.42840  0.47911  0.07838  1.0000
  H   H176      1.0  0.40293  0.53426  0.98393  1.0000
  B   B44       1.0  0.47672  0.64463  0.96325  1.0000
  O   O87       1.0  0.36817  0.48485  0.00053  1.0000
  O   O88       1.0  0.54243  0.54542  0.11831  1.0000
  C   C397      1.0  0.56534  0.97291  0.02182  1.0000
  C   C398      1.0  0.55738  0.98947  0.04835  1.0000
  C   C399      1.0  0.60538  0.00778  0.01223  1.0000
  C   C400      1.0  0.59816  0.02352  0.03865  1.0000
  C   C401      1.0  0.57454  0.01510  0.05677  1.0000
  C   C402      1.0  0.58954  0.98282  0.00340  1.0000
  C   C403      1.0  0.53326  0.80181  0.89917  1.0000
  C   C404      1.0  0.50597  0.78594  0.90061  1.0000
  C   C405      1.0  0.48463  0.79465  0.92255  1.0000
  C   C406      1.0  0.49042  0.81836  0.94229  1.0000
  C   C407      1.0  0.51776  0.83429  0.94073  1.0000
  C   C408      1.0  0.53903  0.82569  0.91878  1.0000
  H   H177      1.0  0.56974  0.02782  0.07710  1.0000
  H   H178      1.0  0.59587  0.97108  0.98290  1.0000
  H   H179      1.0  0.55022  0.79524  0.88266  1.0000
  H   H180      1.0  0.56028  0.83769  0.91731  1.0000
  H   H181      1.0  0.46344  0.78251  0.92439  1.0000
  H   H182      1.0  0.47371  0.82476  0.95912  1.0000
  B   B45       1.0  0.52372  0.86056  0.96238  1.0000
  O   O89       1.0  0.63007  0.02100  0.99854  1.0000
  O   O90       1.0  0.45914  0.95752  0.12106  1.0000
  C   C409      1.0  0.06664  0.46773  0.52313  1.0000
  C   C410      1.0  0.05869  0.48408  0.54979  1.0000
  C   C411      1.0  0.10772  0.50180  0.51489  1.0000
  C   C412      1.0  0.10017  0.51747  0.54126  1.0000
  C   C413      1.0  0.07612  0.50928  0.55883  1.0000
  C   C414      1.0  0.09162  0.47719  0.50547  1.0000
  H   H183      1.0  0.07086  0.52221  0.57892  1.0000
  H   H184      1.0  0.09813  0.46568  0.48489  1.0000
  B   B46       1.0  0.02168  0.35841  0.46010  1.0000
  O   O91       1.0  0.13254  0.51519  0.50161  1.0000
  O   O92       1.0  0.95598  0.45746  0.61828  1.0000
  C   C415      1.0  0.06755  0.53153  0.97612  1.0000
  C   C416      1.0  0.05801  0.51353  0.95116  1.0000
  C   C417      1.0  0.10899  0.49779  0.98368  1.0000
  C   C418      1.0  0.09952  0.48012  0.95939  1.0000
  C   C419      1.0  0.07453  0.48735  0.94299  1.0000
  C   C420      1.0  0.09359  0.52316  0.99247  1.0000
  H   H185      1.0  0.06809  0.47309  0.92426  1.0000
  H   H186      1.0  0.10148  0.53616  0.01153  1.0000
  B   B47       1.0  0.02239  0.64112  0.03904  1.0000
  O   O93       1.0  0.13471  0.48532  0.99578  1.0000
  O   O94       1.0  0.96017  0.54563  0.87902  1.0000
  C   C421      1.0  0.56884  0.03152  0.47597  1.0000
  C   C422      1.0  0.55911  0.01297  0.45149  1.0000
  C   C423      1.0  0.61077  0.99848  0.48333  1.0000
  C   C424      1.0  0.60126  0.98028  0.45942  1.0000
  C   C425      1.0  0.57590  0.98695  0.44333  1.0000
  C   C426      1.0  0.59532  0.02387  0.49187  1.0000
  C   C427      1.0  0.53209  0.19760  0.60360  1.0000
  C   C428      1.0  0.50739  0.21690  0.59973  1.0000
  C   C429      1.0  0.48751  0.21087  0.57586  1.0000
  C   C430      1.0  0.49206  0.18638  0.55668  1.0000
  C   C431      1.0  0.51689  0.16713  0.56050  1.0000
  C   C432      1.0  0.53681  0.17318  0.58428  1.0000
  H   H187      1.0  0.56919  0.97235  0.42497  1.0000
  H   H188      1.0  0.60351  0.03735  0.51048  1.0000
  H   H189      1.0  0.54784  0.20190  0.62176  1.0000
  H   H190      1.0  0.55615  0.15861  0.58751  1.0000
  H   H191      1.0  0.46841  0.22568  0.57214  1.0000
  H   H192      1.0  0.47646  0.18209  0.53839  1.0000
  B   B48       1.0  0.52220  0.14038  0.53913  1.0000
  O   O95       1.0  0.63654  0.98638  0.49562  1.0000
  O   O96       1.0  0.45889  0.04236  0.38170  1.0000
  Si  Si1       1.0  0.37544  0.99906  0.25181  1.0000
  Si  Si2       1.0  0.12595  0.99975  0.74797  1.0000
  Si  Si3       1.0  0.62487  0.50064  0.24813  1.0000
  Si  Si4       1.0  0.87493  0.50062  0.75085  1.0000
  Si  Si5       1.0  0.25047  0.37508  0.00135  1.0000
  Si  Si6       1.0  0.75110  0.12573  0.99832  1.0000
  Si  Si7       1.0  0.24992  0.62405  0.49853  1.0000
  Si  Si8       1.0  0.75030  0.87373  0.50216  1.0000
  Si  Si9       1.0  0.99892  0.24871  0.37444  1.0000
  Si  Si10      1.0  0.00010  0.75104  0.12472  1.0000
  Si  Si11      1.0  0.50048  0.25038  0.62479  1.0000
  Si  Si12      1.0  0.49836  0.75250  0.87590  1.0000
  C  Sn1       1.0  0.19716  0.44539  0.00604  1.0000
  C   C433      1.0  0.16984  0.44858  0.98336  1.0000
  C  Sn2       1.0  0.16689  0.42227  0.96636  1.0000
  C  Sn3       1.0  0.18584  0.39737  0.97216  1.0000
  C   C434      1.0  0.20734  0.39932  0.99484  1.0000
  C  Sn4       1.0  0.21611  0.42049  0.01184  1.0000
  O  Te1       1.0  0.19971  0.47192  0.02275  1.0000
  O  Te2       1.0  0.14522  0.42085  0.94379  1.0000
  O  Te3       1.0  0.18328  0.37082  0.95542  1.0000
  O  Te4       1.0  0.23776  0.42190  0.03440  1.0000
  Mg  Mg1       1.0  0.15037  0.37982  0.92712  1.0000
  Mg  Mg2       1.0  0.23262  0.46292  0.05109  1.0000
  C  Sn5       1.0  0.23413  0.31442  0.93927  1.0000
  C   C435      1.0  0.25701  0.31485  0.91762  1.0000
  C  Sn6       1.0  0.28315  0.33147  0.92255  1.0000
  C  Sn7       1.0  0.28651  0.34801  0.94969  1.0000
  C   C436      1.0  0.26364  0.34757  0.97132  1.0000
  C  Sn8       1.0  0.23749  0.33096  0.96641  1.0000
  O  Te5       1.0  0.20819  0.29765  0.93387  1.0000
  O  Te6       1.0  0.30570  0.33156  0.90057  1.0000
  O  Te7       1.0  0.31247  0.36479  0.95507  1.0000
  O  Te8       1.0  0.21495  0.33086  0.98837  1.0000
  Mg  Mg3       1.0  0.33687  0.35783  0.91834  1.0000
  Mg  Mg4       1.0  0.18378  0.30458  0.97063  1.0000
  C  Sn9       1.0  0.68423  0.46246  0.25830  1.0000
  C   C437      1.0  0.66002  0.47080  0.24031  1.0000
  C  Sn10      1.0  0.64788  0.45045  0.21966  1.0000
  C  Sn11      1.0  0.66018  0.42115  0.21696  1.0000
  C   C438      1.0  0.68437  0.41282  0.23495  1.0000
  C  Sn12      1.0  0.69653  0.43316  0.25560  1.0000
  O  Te9       1.0  0.69601  0.48317  0.27879  1.0000
  O  Te10      1.0  0.62369  0.45930  0.20191  1.0000
  O  Te11      1.0  0.64838  0.40044  0.19645  1.0000
  O  Te12      1.0  0.72070  0.42432  0.27334  1.0000
  Mg  Mg5       1.0  0.61542  0.42307  0.17728  1.0000
  Mg  Mg6       1.0  0.72898  0.46053  0.29799  1.0000
  C  Sn13      1.0  0.76027  0.81460  0.54046  1.0000
  C   C439      1.0  0.74247  0.83882  0.53160  1.0000
  C  Sn14      1.0  0.72058  0.85050  0.55101  1.0000
  C  Sn15      1.0  0.71640  0.83771  0.57989  1.0000
  C   C440      1.0  0.73419  0.81351  0.58874  1.0000
  C  Sn16      1.0  0.75609  0.80181  0.56934  1.0000
  O  Te13      1.0  0.78202  0.80329  0.52068  1.0000
  O  Te14      1.0  0.70306  0.87472  0.54165  1.0000
  O  Te15      1.0  0.69462  0.84904  0.59967  1.0000
  O  Te16      1.0  0.77361  0.77761  0.57869  1.0000
  Mg  Mg7       1.0  0.67635  0.88224  0.57664  1.0000
  Mg  Mg8       1.0  0.80034  0.77008  0.54373  1.0000
  C  Sn17      1.0  0.06598  0.20529  0.33392  1.0000
  C   C441      1.0  0.07527  0.22264  0.30946  1.0000
  C  Sn18      1.0  0.06410  0.25170  0.30564  1.0000
  C  Sn19      1.0  0.04322  0.26368  0.32672  1.0000
  C   C442      1.0  0.03395  0.24633  0.35117  1.0000
  C  Sn20      1.0  0.04511  0.21727  0.35500  1.0000
  O  Te17      1.0  0.07744  0.17630  0.33729  1.0000
  O  Te18      1.0  0.07371  0.26861  0.28100  1.0000
  O  Te19      1.0  0.03176  0.29270  0.32333  1.0000
  O  Te20      1.0  0.03551  0.20036  0.37963  1.0000
  Mg  Mg9       1.0  0.05168  0.30696  0.28613  1.0000
  Mg  Mg10      1.0  0.05754  0.16202  0.37453  1.0000
  C  Sn21      1.0  0.99400  0.30162  0.44531  1.0000
  C   C443      1.0  0.01656  0.32340  0.44369  1.0000
  C  Sn22      1.0  0.03383  0.32648  0.41756  1.0000
  C  Sn23      1.0  0.02843  0.30741  0.39251  1.0000
  C   C444      1.0  0.00588  0.28564  0.39413  1.0000
  C  Sn24      1.0  0.98860  0.28254  0.42025  1.0000
  O  Te21      1.0  0.97701  0.29893  0.47166  1.0000
  O  Te22      1.0  0.05626  0.34842  0.41648  1.0000
  O  Te23      1.0  0.04544  0.31010  0.36615  1.0000
  O  Te24      1.0  0.96618  0.26063  0.42134  1.0000
  Mg  Mg11      1.0  0.07342  0.34336  0.37559  1.0000
  Mg  Mg12      1.0  0.94899  0.26567  0.46221  1.0000
  C  Sn25      1.0  0.96599  0.17169  0.40461  1.0000
  C   C445      1.0  0.98334  0.16292  0.42914  1.0000
  C  Sn26      1.0  0.00439  0.18263  0.44152  1.0000
  C  Sn27      1.0  0.00816  0.21171  0.42914  1.0000
  C   C446      1.0  0.99082  0.22047  0.40463  1.0000
  C  Sn28      1.0  0.96976  0.20077  0.39223  1.0000
  O  Te25      1.0  0.94508  0.15162  0.39259  1.0000
  O  Te26      1.0  0.02148  0.17335  0.46604  1.0000
  O  Te27      1.0  0.02910  0.23178  0.44119  1.0000
  O  Te28      1.0  0.95268  0.21004  0.36773  1.0000
  Mg  Mg13      1.0  0.04705  0.20876  0.47455  1.0000
  Mg  Mg14      1.0  0.92709  0.17465  0.35922  1.0000
  C  Sn29      1.0  0.93138  0.29100  0.33496  1.0000
  C   C447      1.0  0.92235  0.27350  0.31044  1.0000
  C  Sn30      1.0  0.93377  0.24453  0.30632  1.0000
  C  Sn31      1.0  0.95465  0.23278  0.32716  1.0000
  C   C448      1.0  0.96367  0.25027  0.35168  1.0000
  C  Sn32      1.0  0.95226  0.27925  0.35581  1.0000
  O  Te29      1.0  0.91966  0.31991  0.33864  1.0000
  O  Te30      1.0  0.92441  0.22747  0.28162  1.0000
  O  Te31      1.0  0.96636  0.20385  0.32347  1.0000
  O  Te32      1.0  0.96160  0.29631  0.38049  1.0000
  Mg  Mg15      1.0  0.94674  0.18931  0.28631  1.0000
  Mg  Mg16      1.0  0.93928  0.33446  0.37584  1.0000
  C  Sn33      1.0  0.77774  0.85617  0.43729  1.0000
  C   C449      1.0  0.75614  0.85440  0.46014  1.0000
  C  Sn34      1.0  0.73876  0.82848  0.46349  1.0000
  C  Sn35      1.0  0.74307  0.80380  0.44360  1.0000
  C   C450      1.0  0.76466  0.80558  0.42078  1.0000
  C  Sn36      1.0  0.78205  0.83149  0.41740  1.0000
  O  Te33      1.0  0.79487  0.88230  0.43435  1.0000
  O  Te34      1.0  0.71729  0.82724  0.48649  1.0000
  O  Te35      1.0  0.72592  0.77766  0.44655  1.0000
  O  Te36      1.0  0.80351  0.83274  0.39442  1.0000
  Mg  Mg17      1.0  0.69951  0.78676  0.48138  1.0000
  Mg  Mg18      1.0  0.82132  0.87320  0.39951  1.0000
  C  Sn37      1.0  0.69687  0.09710  0.03720  1.0000
  C   C451      1.0  0.71768  0.09665  0.01355  1.0000
  C  Sn38      1.0  0.70516  0.08705  0.98661  1.0000
  C  Sn39      1.0  0.67706  0.07245  0.98321  1.0000
  C   C452      1.0  0.66207  0.06776  0.00685  1.0000
  C  Sn40      1.0  0.66876  0.08250  0.03381  1.0000
  O  Te37      1.0  0.70405  0.11199  0.06394  1.0000
  O  Te38      1.0  0.72633  0.08690  0.96329  1.0000
  O  Te39      1.0  0.66989  0.05756  0.95645  1.0000
  O  Te40      1.0  0.64761  0.08266  0.05712  1.0000
  Mg  Mg19      1.0  0.70611  0.06362  0.93119  1.0000
  Mg  Mg20      1.0  0.66780  0.10594  0.08922  1.0000
  C  Sn41      1.0  0.35641  0.06133  0.22022  1.0000
  C   C453      1.0  0.35607  0.04105  0.24412  1.0000
  C  Sn42      1.0  0.33110  0.03923  0.26319  1.0000
  C  Sn43      1.0  0.30593  0.05806  0.25825  1.0000
  C   C454      1.0  0.30627  0.07832  0.23436  1.0000
  C  Sn44      1.0  0.33124  0.08016  0.21529  1.0000
  O  Te41      1.0  0.38161  0.06276  0.20144  1.0000
  O  Te42      1.0  0.33129  0.01879  0.28694  1.0000
  O  Te43      1.0  0.28072  0.05662  0.27706  1.0000
  O  Te44      1.0  0.33105  0.10058  0.19155  1.0000
  Mg  Mg21      1.0  0.29166  0.02517  0.30635  1.0000
  Mg  Mg22      1.0  0.37066  0.09421  0.17211  1.0000
  C  Sn45      1.0  0.85406  0.56263  0.71973  1.0000
  C   C455      1.0  0.85477  0.54235  0.74362  1.0000
  C  Sn46      1.0  0.83019  0.53975  0.76310  1.0000
  C  Sn47      1.0  0.80436  0.55779  0.75860  1.0000
  C   C456      1.0  0.80367  0.57805  0.73472  1.0000
  C  Sn48      1.0  0.82824  0.58066  0.71523  1.0000
  O  Te45      1.0  0.87889  0.56485  0.70054  1.0000
  O  Te46      1.0  0.83142  0.51933  0.78683  1.0000
  O  Te47      1.0  0.77953  0.55556  0.77782  1.0000
  O  Te48      1.0  0.82701  0.60107  0.69151  1.0000
  Mg  Mg23      1.0  0.79194  0.52447  0.80691  1.0000
  Mg  Mg24      1.0  0.86647  0.59594  0.67141  1.0000
  C  Sn49      1.0  0.43620  0.26800  0.68311  1.0000
  C   C457      1.0  0.41555  0.24435  0.68307  1.0000
  C  Sn50      1.0  0.42197  0.21766  0.66764  1.0000
  C  Sn51      1.0  0.44961  0.21455  0.65193  1.0000
  C   C458      1.0  0.47025  0.23819  0.65198  1.0000
  C  Sn52      1.0  0.46384  0.26489  0.66740  1.0000
  O  Te49      1.0  0.42932  0.29448  0.69869  1.0000
  O  Te50      1.0  0.40097  0.19433  0.66792  1.0000
  O  Te51      1.0  0.45648  0.18804  0.63635  1.0000
  O  Te52      1.0  0.48483  0.28821  0.66713  1.0000
  Mg  Mg25      1.0  0.42065  0.16265  0.64338  1.0000
  Mg  Mg26      1.0  0.46517  0.31989  0.69168  1.0000
  C  Sn53      1.0  0.85673  0.43601  0.77847  1.0000
  C   C459      1.0  0.85512  0.45860  0.75681  1.0000
  C  Sn54      1.0  0.82881  0.46286  0.74043  1.0000
  C  Sn55      1.0  0.80357  0.44416  0.74582  1.0000
  C   C460      1.0  0.80518  0.42159  0.76746  1.0000
  C  Sn56      1.0  0.83149  0.41731  0.78385  1.0000
  O  Te53      1.0  0.88327  0.43215  0.79458  1.0000
  O  Te54      1.0  0.82774  0.48559  0.71889  1.0000
  O  Te55      1.0  0.77702  0.44804  0.72968  1.0000
  O  Te56      1.0  0.83256  0.39460  0.80539  1.0000
  Mg  Mg27      1.0  0.78655  0.48204  0.70273  1.0000
  Mg  Mg28      1.0  0.87373  0.39814  0.82157  1.0000
  C  Sn57      1.0  0.79990  0.92138  0.48312  1.0000
  C   C461      1.0  0.78993  0.89802  0.50156  1.0000
  C  Sn58      1.0  0.80007  0.89578  0.53114  1.0000
  C  Sn59      1.0  0.82058  0.91735  0.54253  1.0000
  C   C462      1.0  0.83053  0.94069  0.52410  1.0000
  C  Sn60      1.0  0.82041  0.94294  0.49451  1.0000
  O  Te57      1.0  0.78947  0.92318  0.45362  1.0000
  O  Te58      1.0  0.78980  0.87223  0.54914  1.0000
  O  Te59      1.0  0.83101  0.91553  0.57206  1.0000
  O  Te60      1.0  0.83066  0.96649  0.47652  1.0000
  Mg  Mg29      1.0  0.81049  0.87937  0.58782  1.0000
  Mg  Mg30      1.0  0.80998  0.95938  0.43785  1.0000
  C  Sn61      1.0  0.24223  0.68403  0.53730  1.0000
  C   C463      1.0  0.25917  0.65922  0.52794  1.0000
  C  Sn62      1.0  0.28052  0.64664  0.54701  1.0000
  C  Sn63      1.0  0.28502  0.65911  0.57607  1.0000
  C   C464      1.0  0.26809  0.68390  0.58542  1.0000
  C  Sn64      1.0  0.24673  0.69650  0.56635  1.0000
  O  Te61      1.0  0.22100  0.69624  0.51786  1.0000
  O  Te62      1.0  0.29719  0.62185  0.53715  1.0000
  O  Te63      1.0  0.30627  0.64688  0.59551  1.0000
  O  Te64      1.0  0.23006  0.72128  0.57621  1.0000
  Mg  Mg31      1.0  0.32343  0.61316  0.57183  1.0000
  Mg  Mg32      1.0  0.20381  0.72997  0.54155  1.0000
  C  Sn65      1.0  0.06467  0.77890  0.14201  1.0000
  C   C465      1.0  0.04212  0.75714  0.14395  1.0000
  C  Sn66      1.0  0.03824  0.74056  0.17028  1.0000
  C  Sn67      1.0  0.05729  0.74585  0.19521  1.0000
  C   C466      1.0  0.07982  0.76760  0.19327  1.0000
  C  Sn68      1.0  0.08372  0.78419  0.16694  1.0000
  O  Te65      1.0  0.06814  0.79521  0.11546  1.0000
  O  Te66      1.0  0.01555  0.71891  0.17168  1.0000
  O  Te67      1.0  0.05380  0.72951  0.22177  1.0000
  O  Te68      1.0  0.10640  0.80583  0.16554  1.0000
  Mg  Mg33      1.0  0.01968  0.70248  0.21275  1.0000
  Mg  Mg34      1.0  0.10227  0.82228  0.12449  1.0000
  C  Sn69      1.0  0.55511  0.49287  0.19485  1.0000
  C   C467      1.0  0.55581  0.51589  0.17358  1.0000
  C  Sn70      1.0  0.58100  0.53443  0.17098  1.0000
  C  Sn71      1.0  0.60602  0.52986  0.19002  1.0000
  C   C468      1.0  0.60531  0.50685  0.21126  1.0000
  C  Sn72      1.0  0.58013  0.48830  0.21388  1.0000
  O  Te69      1.0  0.52969  0.47460  0.19705  1.0000
  O  Te70      1.0  0.58118  0.55730  0.14956  1.0000
  O  Te71      1.0  0.63144  0.54815  0.18779  1.0000
  O  Te72      1.0  0.57994  0.46543  0.23528  1.0000
  Mg  Mg35      1.0  0.62099  0.57628  0.15514  1.0000
  Mg  Mg36      1.0  0.54016  0.44643  0.22971  1.0000
  C  Sn73      1.0  0.47038  0.67319  0.90533  1.0000
  C   C469      1.0  0.48446  0.66785  0.93280  1.0000
  C  Sn74      1.0  0.50059  0.69069  0.94710  1.0000
  C  Sn75      1.0  0.50268  0.71947  0.93368  1.0000
  C   C470      1.0  0.48860  0.72480  0.90623  1.0000
  C  Sn76      1.0  0.47247  0.70197  0.89191  1.0000
  O  Te73      1.0  0.45436  0.65003  0.89144  1.0000
  O  Te74      1.0  0.51449  0.68481  0.97455  1.0000
  O  Te75      1.0  0.51872  0.74264  0.94760  1.0000
  O  Te76      1.0  0.45857  0.70784  0.86448  1.0000
  Mg  Mg37      1.0  0.53373  0.72364  0.98476  1.0000
  Mg  Mg38      1.0  0.43932  0.66904  0.85426  1.0000
  C  Sn77      1.0  0.56582  0.27624  0.64190  1.0000
  C   C471      1.0  0.54219  0.25578  0.64487  1.0000
  C  Sn78      1.0  0.53708  0.24122  0.67219  1.0000
  C  Sn79      1.0  0.55597  0.24726  0.69707  1.0000
  C   C472      1.0  0.57958  0.26772  0.69411  1.0000
  C  Sn80      1.0  0.58471  0.28228  0.66679  1.0000
  O  Te77      1.0  0.57052  0.29054  0.61438  1.0000
  O  Te78      1.0  0.51332  0.22085  0.67460  1.0000
  O  Te79      1.0  0.55125  0.23294  0.72461  1.0000
  O  Te80      1.0  0.60845  0.30265  0.66437  1.0000
  Mg  Mg39      1.0  0.51598  0.20705  0.71677  1.0000
  Mg  Mg40      1.0  0.60580  0.31647  0.62223  1.0000
  C  Sn81      1.0  0.57700  0.51909  0.29844  1.0000
  C   C473      1.0  0.60026  0.50074  0.28784  1.0000
  C  Sn82      1.0  0.60254  0.47097  0.29739  1.0000
  C  Sn83      1.0  0.58110  0.45929  0.31796  1.0000
  C   C474      1.0  0.55786  0.47764  0.32855  1.0000
  C  Sn84      1.0  0.55557  0.50742  0.31901  1.0000
  O  Te81      1.0  0.57517  0.54879  0.28859  1.0000
  O  Te82      1.0  0.62599  0.45305  0.28648  1.0000
  O  Te83      1.0  0.58296  0.42957  0.32781  1.0000
  O  Te84      1.0  0.53213  0.52533  0.32991  1.0000
  Mg  Mg41      1.0  0.61895  0.41403  0.30653  1.0000
  Mg  Mg42      1.0  0.53914  0.56434  0.30986  1.0000
  C  Sn85      1.0  0.78039  0.14428  0.06209  1.0000
  C   C475      1.0  0.75800  0.14563  0.04025  1.0000
  C  Sn86      1.0  0.74080  0.17164  0.03694  1.0000
  C  Sn87      1.0  0.74610  0.19684  0.05585  1.0000
  C   C476      1.0  0.76849  0.19549  0.07767  1.0000
  C  Sn88      1.0  0.78570  0.16948  0.08100  1.0000
  O  Te85      1.0  0.79732  0.11804  0.06499  1.0000
  O  Te86      1.0  0.71853  0.17245  0.01495  1.0000
  O  Te87      1.0  0.72915  0.22309  0.05293  1.0000
  O  Te88      1.0  0.80796  0.16866  0.10297  1.0000
  Mg  Mg43      1.0  0.70140  0.21328  0.01967  1.0000
  Mg  Mg44      1.0  0.82511  0.12786  0.09825  1.0000
  C  Sn89      1.0  0.03258  0.67339  0.09485  1.0000
  C   C477      1.0  0.01601  0.66480  0.06963  1.0000
  C  Sn90      1.0  0.99556  0.68468  0.05677  1.0000
  C  Sn91      1.0  0.99159  0.71377  0.06937  1.0000
  C   C478      1.0  0.00815  0.72236  0.09457  1.0000
  C  Sn92      1.0  0.02861  0.70249  0.10745  1.0000
  O  Te89      1.0  0.05291  0.65315  0.10734  1.0000
  O  Te90      1.0  0.97924  0.67557  0.03157  1.0000
  O  Te91      1.0  0.97124  0.73402  0.05686  1.0000
  O  Te92      1.0  0.04493  0.71158  0.13263  1.0000
  Mg  Mg45      1.0  0.95426  0.71119  0.02262  1.0000
  Mg  Mg46      1.0  0.06993  0.67599  0.14159  1.0000
  C  Sn93      1.0  0.33323  0.93280  0.29361  1.0000
  C   C479      1.0  0.31090  0.92182  0.27453  1.0000
  C  Sn94      1.0  0.30961  0.93119  0.24463  1.0000
  C  Sn95      1.0  0.33111  0.95196  0.23355  1.0000
  C   C480      1.0  0.35343  0.96292  0.25262  1.0000
  C  Sn96      1.0  0.35473  0.95357  0.28253  1.0000
  O  Te93      1.0  0.33410  0.92313  0.32342  1.0000
  O  Te94      1.0  0.28706  0.91991  0.22599  1.0000
  O  Te95      1.0  0.33023  0.96163  0.20371  1.0000
  O  Te96      1.0  0.37727  0.96484  0.30116  1.0000
  Mg  Mg47      1.0  0.29525  0.93984  0.18708  1.0000
  Mg  Mg48      1.0  0.36911  0.94490  0.34006  1.0000
