data_image0
_chemical_formula_structural       C6H2BO2C12H6BO2C6H2BO2C12H6BO2C12H6BO2C6H2BO2C12H6BO2C12H6BO2C12H6BO2C12H6BO2C6H2BO2C12H6BO2C6H2BO2C6H2BO2C12H6BO2C12H6BO2C6H2BO2C6H2BO2C12H6BO2C12H6BO2C6H2BO2C6H2BO2C12H6BO2C6H2BO2C6H2BO2C6H2BO2C12H6BO2C12H6BO2C12H6BO2C12H6BO2C12H6BO2C6H2BO2C6H2BO2C12H6BO2C6H2BO2C6H2BO2C12H6BO2C12H6BO2C6H2BO2C12H6BO2C6H2BO2C6H2BO2C12H6BO2C12H6BO2C6H2BO2C6H2BO2C6H2BO2C6H2BO2Si12C2Sn2C2HTe2HMgC2Sn2C2HTe2HMgC2Sn2C2HTe2HMgC2Sn2C2HTe2HMgC2Sn2C2HTe2HMgC2Sn2C2HTe2HMgC2Sn2C2HTe2HMgC2Sn2C2HTe2HMgC2Sn2C2HTe2HMgC2Sn2C2HTe2HMgC2Sn2C2HTe2HMgC2Sn2C2HTe2HMgC2Sn2C2HTe2HMgC2Sn2C2HTe2HMgC2Sn2C2HTe2HMgC2Sn2C2HTe2HMgC2Sn2C2HTe2HMgC2Sn2C2HTe2HMgC2Sn2C2HTe2HMgC2Sn2C2HTe2HMgC2Sn2C2HTe2HMgC2Sn2C2HTe2HMgC2Sn2C2HTe2HMgC2Sn2C2HTe2HMg
_chemical_formula_sum              "C528 H240 B48 O96 Si12 Sn48 Te48 Mg24"
_cell_length_a       44.5355
_cell_length_b       44.4898
_cell_length_c       44.4579
_cell_angle_alpha    90.2953
_cell_angle_beta     89.6665
_cell_angle_gamma    90.0121

_symmetry_space_group_name_H-M    'P1'
_space_group_IT_number       1

loop_
  _space_group_symop_operation_xyz
  'x, y, z'

loop_
  _atom_site_type_symbol
  _atom_site_label
  _atom_site_symmetry_multiplicity
  _atom_site_fract_x
  _atom_site_fract_y
  _atom_site_fract_z
  _atom_site_occupancy
  C   C1        1.0  0.22722  0.21690  0.18336  1.0000
  C   C2        1.0  0.20191  0.23446  0.19279  1.0000
  C   C3        1.0  0.23544  0.25093  0.14227  1.0000
  C   C4        1.0  0.21087  0.26828  0.15172  1.0000
  C   C5        1.0  0.19404  0.26075  0.17656  1.0000
  C   C6        1.0  0.24394  0.22549  0.15743  1.0000
  H   H1        1.0  0.17545  0.27501  0.18338  1.0000
  H   H2        1.0  0.26308  0.21263  0.14939  1.0000
  B   B1        1.0  0.29065  0.10884  0.22928  1.0000
  O   O1        1.0  0.24826  0.26381  0.11689  1.0000
  O   O2        1.0  0.13031  0.20313  0.29230  1.0000
  C   C7        1.0  0.72464  0.71617  0.68382  1.0000
  C   C8        1.0  0.70021  0.73472  0.69364  1.0000
  C   C9        1.0  0.73305  0.74930  0.64218  1.0000
  C   C10       1.0  0.70906  0.76738  0.65172  1.0000
  C   C11       1.0  0.69258  0.76081  0.67703  1.0000
  C   C12       1.0  0.74114  0.72387  0.65750  1.0000
  C   C13       1.0  0.85160  0.55151  0.71827  1.0000
  C   C14       1.0  0.84958  0.53364  0.74422  1.0000
  C   C15       1.0  0.82687  0.54026  0.76547  1.0000
  C   C16       1.0  0.80704  0.56405  0.76108  1.0000
  C   C17       1.0  0.80905  0.58194  0.73507  1.0000
  C   C18       1.0  0.83164  0.57524  0.71373  1.0000
  H   H3        1.0  0.67418  0.77541  0.68363  1.0000
  H   H4        1.0  0.75974  0.71036  0.64929  1.0000
  H   H5        1.0  0.86878  0.54658  0.70141  1.0000
  H   H6        1.0  0.83340  0.58872  0.69342  1.0000
  H   H7        1.0  0.82452  0.52640  0.78548  1.0000
  H   H8        1.0  0.78966  0.56884  0.77775  1.0000
  B   B2        1.0  0.78716  0.60807  0.72996  1.0000
  O   O3        1.0  0.74560  0.76131  0.61634  1.0000
  O   O4        1.0  0.62752  0.70451  0.79246  1.0000
  C   C19       1.0  0.27373  0.78007  0.68285  1.0000
  C   C20       1.0  0.30038  0.76404  0.69083  1.0000
  C   C21       1.0  0.26703  0.74682  0.64068  1.0000
  C   C22       1.0  0.29350  0.73161  0.64801  1.0000
  C   C23       1.0  0.31029  0.73956  0.67263  1.0000
  C   C24       1.0  0.25686  0.77084  0.65737  1.0000
  H   H9        1.0  0.33065  0.72723  0.67755  1.0000
  H   H10       1.0  0.23637  0.78219  0.65089  1.0000
  B   B3        1.0  0.20866  0.88745  0.72982  1.0000
  O   O5        1.0  0.25452  0.73378  0.61532  1.0000
  O   O6        1.0  0.36991  0.79671  0.79087  1.0000
  C   C25       1.0  0.77334  0.28164  0.18338  1.0000
  C   C26       1.0  0.79962  0.26512  0.19141  1.0000
  C   C27       1.0  0.76583  0.24797  0.14168  1.0000
  C   C28       1.0  0.79195  0.23224  0.14914  1.0000
  C   C29       1.0  0.80897  0.24018  0.17357  1.0000
  C   C30       1.0  0.75623  0.27248  0.15802  1.0000
  C   C31       1.0  0.64704  0.44764  0.21692  1.0000
  C   C32       1.0  0.65017  0.46745  0.24146  1.0000
  C   C33       1.0  0.67342  0.46203  0.26216  1.0000
  C   C34       1.0  0.69261  0.43749  0.25870  1.0000
  C   C35       1.0  0.68932  0.41754  0.23420  1.0000
  C   C36       1.0  0.66632  0.42312  0.21333  1.0000
  H   H11       1.0  0.82903  0.22744  0.17865  1.0000
  H   H12       1.0  0.73598  0.28417  0.15135  1.0000
  H   H13       1.0  0.62954  0.45155  0.20039  1.0000
  H   H14       1.0  0.66373  0.40808  0.19412  1.0000
  H   H15       1.0  0.67660  0.47741  0.28102  1.0000
  H   H16       1.0  0.71038  0.43372  0.27496  1.0000
  B   B4        1.0  0.71036  0.39050  0.22980  1.0000
  O   O7        1.0  0.75306  0.23491  0.11647  1.0000
  O   O8        1.0  0.86846  0.29393  0.29280  1.0000
  C   C37       1.0  0.77279  0.71845  0.31669  1.0000
  C   C38       1.0  0.79804  0.73626  0.30781  1.0000
  C   C39       1.0  0.76320  0.75261  0.35765  1.0000
  C   C40       1.0  0.78778  0.77013  0.34876  1.0000
  C   C41       1.0  0.80523  0.76273  0.32428  1.0000
  C   C42       1.0  0.75528  0.72706  0.34215  1.0000
  C   C43       1.0  0.64636  0.55333  0.27990  1.0000
  C   C44       1.0  0.64997  0.53391  0.25508  1.0000
  C   C45       1.0  0.67397  0.53939  0.23498  1.0000
  C   C46       1.0  0.69347  0.56352  0.23937  1.0000
  C   C47       1.0  0.68979  0.58299  0.26425  1.0000
  C   C48       1.0  0.66591  0.57745  0.28441  1.0000
  H   H17       1.0  0.82400  0.77701  0.31822  1.0000
  H   H18       1.0  0.73610  0.71405  0.34969  1.0000
  H   H19       1.0  0.62825  0.54936  0.29595  1.0000
  H   H20       1.0  0.66285  0.59215  0.30384  1.0000
  H   H21       1.0  0.67759  0.52435  0.21588  1.0000
  H   H22       1.0  0.71185  0.56735  0.22360  1.0000
  B   B5        1.0  0.71140  0.60936  0.26975  1.0000
  O   O9        1.0  0.75017  0.76513  0.38320  1.0000
  O   O10       1.0  0.87277  0.70462  0.21060  1.0000
  C   C49       1.0  0.27275  0.21886  0.81621  1.0000
  C   C50       1.0  0.29789  0.23667  0.80699  1.0000
  C   C51       1.0  0.26526  0.25174  0.85861  1.0000
  C   C52       1.0  0.28986  0.26916  0.84957  1.0000
  C   C53       1.0  0.30628  0.26229  0.82424  1.0000
  C   C54       1.0  0.25634  0.22686  0.84259  1.0000
  H   H23       1.0  0.32528  0.27627  0.81818  1.0000
  H   H24       1.0  0.23724  0.21386  0.85036  1.0000
  B   B6        1.0  0.21036  0.10985  0.77008  1.0000
  O   O11       1.0  0.25306  0.26374  0.88478  1.0000
  O   O12       1.0  0.36978  0.20605  0.70744  1.0000
  C   C55       1.0  0.72522  0.28332  0.81734  1.0000
  C   C56       1.0  0.69984  0.26579  0.80835  1.0000
  C   C57       1.0  0.73281  0.25028  0.85914  1.0000
  C   C58       1.0  0.70805  0.23303  0.85027  1.0000
  C   C59       1.0  0.69145  0.24012  0.82536  1.0000
  C   C60       1.0  0.74177  0.27513  0.84329  1.0000
  C   C61       1.0  0.85441  0.44690  0.78130  1.0000
  C   C62       1.0  0.84986  0.46730  0.75769  1.0000
  C   C63       1.0  0.82521  0.46255  0.73847  1.0000
  C   C64       1.0  0.80603  0.43811  0.74248  1.0000
  C   C65       1.0  0.81059  0.41770  0.76615  1.0000
  C   C66       1.0  0.83506  0.42257  0.78554  1.0000
  H   H25       1.0  0.67266  0.22596  0.81909  1.0000
  H   H26       1.0  0.76129  0.28768  0.85063  1.0000
  H   H27       1.0  0.87308  0.45023  0.79668  1.0000
  H   H28       1.0  0.83877  0.40716  0.80410  1.0000
  H   H29       1.0  0.82084  0.47841  0.72042  1.0000
  H   H30       1.0  0.78713  0.43485  0.72740  1.0000
  B   B7        1.0  0.78917  0.39106  0.77091  1.0000
  O   O13       1.0  0.74545  0.23782  0.88461  1.0000
  O   O14       1.0  0.63185  0.29376  0.70616  1.0000
  C   C67       1.0  0.22608  0.78040  0.31601  1.0000
  C   C68       1.0  0.20031  0.76342  0.30709  1.0000
  C   C69       1.0  0.23294  0.74725  0.35786  1.0000
  C   C70       1.0  0.20744  0.73088  0.34948  1.0000
  C   C71       1.0  0.19106  0.73824  0.32446  1.0000
  C   C72       1.0  0.24258  0.77172  0.34181  1.0000
  C   C73       1.0  0.35309  0.94740  0.28401  1.0000
  C   C74       1.0  0.35063  0.96547  0.25824  1.0000
  C   C75       1.0  0.32853  0.95800  0.23687  1.0000
  C   C76       1.0  0.30979  0.93324  0.24103  1.0000
  C   C77       1.0  0.31232  0.91509  0.26681  1.0000
  C   C78       1.0  0.33425  0.92267  0.28826  1.0000
  H   H31       1.0  0.17160  0.72485  0.31854  1.0000
  H   H32       1.0  0.26258  0.78358  0.34898  1.0000
  H   H33       1.0  0.36984  0.95287  0.30093  1.0000
  H   H34       1.0  0.33641  0.90916  0.30848  1.0000
  H   H35       1.0  0.32586  0.97181  0.21687  1.0000
  H   H36       1.0  0.29282  0.92782  0.22434  1.0000
  B   B8        1.0  0.29130  0.88806  0.27125  1.0000
  O   O15       1.0  0.24541  0.73466  0.38330  1.0000
  O   O16       1.0  0.13201  0.79398  0.20588  1.0000
  C   C79       1.0  0.18410  0.22532  0.21892  1.0000
  C   C80       1.0  0.19307  0.19988  0.23623  1.0000
  C   C81       1.0  0.14156  0.23215  0.25178  1.0000
  C   C82       1.0  0.15058  0.20747  0.26895  1.0000
  C   C83       1.0  0.17581  0.19115  0.26174  1.0000
  C   C84       1.0  0.15768  0.24143  0.22707  1.0000
  C   C85       1.0  0.21977  0.35407  0.05484  1.0000
  C   C86       1.0  0.24420  0.35027  0.03498  1.0000
  C   C87       1.0  0.26443  0.32656  0.04054  1.0000
  C   C88       1.0  0.26040  0.30745  0.06500  1.0000
  C   C89       1.0  0.23584  0.31121  0.08483  1.0000
  C   C90       1.0  0.21568  0.33496  0.07935  1.0000
  H   H37       1.0  0.18186  0.17197  0.27539  1.0000
  H   H38       1.0  0.14981  0.26048  0.21421  1.0000
  H   H39       1.0  0.20362  0.37197  0.05082  1.0000
  H   H40       1.0  0.19653  0.33824  0.09434  1.0000
  H   H41       1.0  0.28334  0.32282  0.02531  1.0000
  H   H42       1.0  0.27622  0.28921  0.06878  1.0000
  B   B9        1.0  0.23070  0.28946  0.11115  1.0000
  O   O17       1.0  0.11526  0.24393  0.26374  1.0000
  O   O18       1.0  0.29255  0.12861  0.20469  1.0000
  C   C91       1.0  0.68281  0.72645  0.72029  1.0000
  C   C92       1.0  0.69042  0.70002  0.73677  1.0000
  C   C93       1.0  0.64147  0.73512  0.75408  1.0000
  C   C94       1.0  0.64832  0.70871  0.76959  1.0000
  C   C95       1.0  0.67243  0.69110  0.76169  1.0000
  C   C96       1.0  0.65799  0.74432  0.72964  1.0000
  C   C97       1.0  0.71754  0.85110  0.55359  1.0000
  C   C98       1.0  0.74316  0.84848  0.53511  1.0000
  C   C99       1.0  0.76394  0.82544  0.54132  1.0000
  C   C100      1.0  0.75938  0.80583  0.56527  1.0000
  C   C101      1.0  0.73379  0.80861  0.58388  1.0000
  C   C102      1.0  0.71296  0.83156  0.57765  1.0000
  H   H43       1.0  0.67697  0.67078  0.77423  1.0000
  H   H44       1.0  0.65166  0.76468  0.71798  1.0000
  H   H45       1.0  0.70098  0.86844  0.54895  1.0000
  H   H46       1.0  0.69298  0.83383  0.59173  1.0000
  H   H47       1.0  0.78373  0.82268  0.52704  1.0000
  H   H48       1.0  0.77564  0.78815  0.56972  1.0000
  B   B10       1.0  0.72856  0.78718  0.61035  1.0000
  O   O19       1.0  0.61645  0.74848  0.76701  1.0000
  O   O20       1.0  0.78825  0.62702  0.70474  1.0000
  C   C103      1.0  0.68285  0.27417  0.78163  1.0000
  C   C104      1.0  0.69212  0.29940  0.76403  1.0000
  C   C105      1.0  0.64201  0.26573  0.74753  1.0000
  C   C106      1.0  0.65121  0.29028  0.73019  1.0000
  C   C107      1.0  0.67565  0.30739  0.73797  1.0000
  C   C108      1.0  0.65712  0.25735  0.77300  1.0000
  H   H49       1.0  0.68171  0.32661  0.72434  1.0000
  H   H50       1.0  0.64910  0.23840  0.78601  1.0000
  B   B11       1.0  0.72781  0.21235  0.89080  1.0000
  O   O21       1.0  0.61657  0.25308  0.73493  1.0000
  O   O22       1.0  0.79089  0.37122  0.79537  1.0000
  C   C109      1.0  0.18364  0.77212  0.28025  1.0000
  C   C110      1.0  0.19341  0.79727  0.26275  1.0000
  C   C111      1.0  0.14236  0.76489  0.24638  1.0000
  C   C112      1.0  0.15178  0.78961  0.22941  1.0000
  C   C113      1.0  0.17693  0.80582  0.23687  1.0000
  C   C114      1.0  0.15766  0.75576  0.27149  1.0000
  C   C115      1.0  0.21704  0.64561  0.44698  1.0000
  C   C116      1.0  0.24263  0.64874  0.46517  1.0000
  C   C117      1.0  0.26306  0.67204  0.45848  1.0000
  C   C118      1.0  0.25809  0.69146  0.43451  1.0000
  C   C119      1.0  0.23238  0.68836  0.41638  1.0000
  C   C120      1.0  0.21198  0.66508  0.42300  1.0000
  H   H51       1.0  0.18345  0.82482  0.22314  1.0000
  H   H52       1.0  0.14957  0.73653  0.28405  1.0000
  H   H53       1.0  0.20078  0.62800  0.45189  1.0000
  H   H54       1.0  0.19195  0.66242  0.40931  1.0000
  H   H55       1.0  0.28282  0.67525  0.47248  1.0000
  H   H56       1.0  0.27408  0.70935  0.42972  1.0000
  B   B12       1.0  0.22688  0.70997  0.39015  1.0000
  O   O23       1.0  0.11655  0.75294  0.23387  1.0000
  O   O24       1.0  0.29243  0.86812  0.29561  1.0000
  C   C121      1.0  0.31743  0.77303  0.71744  1.0000
  C   C122      1.0  0.30787  0.79843  0.73488  1.0000
  C   C123      1.0  0.35912  0.76650  0.75088  1.0000
  C   C124      1.0  0.35009  0.79180  0.76747  1.0000
  C   C125      1.0  0.32488  0.80783  0.76017  1.0000
  C   C126      1.0  0.34349  0.75681  0.72607  1.0000
  H   H57       1.0  0.31868  0.82721  0.77370  1.0000
  H   H58       1.0  0.35117  0.73717  0.71369  1.0000
  B   B13       1.0  0.27411  0.71025  0.60733  1.0000
  O   O25       1.0  0.38480  0.75457  0.76360  1.0000
  O   O26       1.0  0.20614  0.86665  0.70602  1.0000
  C   C127      1.0  0.81674  0.27375  0.21800  1.0000
  C   C128      1.0  0.80743  0.29895  0.23585  1.0000
  C   C129      1.0  0.85799  0.26573  0.25147  1.0000
  C   C130      1.0  0.84893  0.29039  0.26895  1.0000
  C   C131      1.0  0.82405  0.30708  0.26185  1.0000
  C   C132      1.0  0.84249  0.25696  0.22633  1.0000
  H   H59       1.0  0.81769  0.32586  0.27614  1.0000
  H   H60       1.0  0.85006  0.23753  0.21358  1.0000
  B   B14       1.0  0.77232  0.21104  0.10858  1.0000
  O   O27       1.0  0.88343  0.25304  0.26384  1.0000
  O   O28       1.0  0.70766  0.36970  0.20603  1.0000
  C   C133      1.0  0.81653  0.72711  0.28211  1.0000
  C   C134      1.0  0.80911  0.70056  0.26547  1.0000
  C   C135      1.0  0.85899  0.73505  0.24950  1.0000
  C   C136      1.0  0.85194  0.70884  0.23347  1.0000
  C   C137      1.0  0.82750  0.69147  0.24081  1.0000
  C   C138      1.0  0.84203  0.74443  0.27368  1.0000
  C   C139      1.0  0.78051  0.85332  0.44803  1.0000
  C   C140      1.0  0.75671  0.84890  0.46846  1.0000
  C   C141      1.0  0.73649  0.82511  0.46298  1.0000
  C   C142      1.0  0.73977  0.80658  0.43779  1.0000
  C   C143      1.0  0.76353  0.81117  0.41723  1.0000
  C   C144      1.0  0.78388  0.83477  0.42282  1.0000
  H   H61       1.0  0.82274  0.67138  0.22780  1.0000
  H   H62       1.0  0.84849  0.76459  0.28585  1.0000
  H   H63       1.0  0.79662  0.87128  0.45203  1.0000
  H   H64       1.0  0.80252  0.83839  0.40730  1.0000
  H   H65       1.0  0.71815  0.82095  0.47875  1.0000
  H   H66       1.0  0.72399  0.78828  0.43393  1.0000
  B   B15       1.0  0.76789  0.79048  0.38982  1.0000
  O   O29       1.0  0.88431  0.74827  0.23693  1.0000
  O   O30       1.0  0.70871  0.62971  0.29394  1.0000
  C   C145      1.0  0.31520  0.22821  0.78024  1.0000
  C   C146      1.0  0.30730  0.20178  0.76359  1.0000
  C   C147      1.0  0.35659  0.23664  0.74639  1.0000
  C   C148      1.0  0.34934  0.21030  0.73064  1.0000
  C   C149      1.0  0.32516  0.19281  0.73852  1.0000
  C   C150      1.0  0.34017  0.24590  0.77097  1.0000
  C   C151      1.0  0.28187  0.35362  0.94808  1.0000
  C   C152      1.0  0.25768  0.34961  0.96817  1.0000
  C   C153      1.0  0.23789  0.32539  0.96300  1.0000
  C   C154      1.0  0.24194  0.30605  0.93852  1.0000
  C   C155      1.0  0.26615  0.31016  0.91837  1.0000
  C   C156      1.0  0.28605  0.33424  0.92361  1.0000
  H   H67       1.0  0.32035  0.17261  0.72567  1.0000
  H   H68       1.0  0.34661  0.26626  0.78278  1.0000
  H   H69       1.0  0.29770  0.37192  0.95178  1.0000
  H   H70       1.0  0.30495  0.33762  0.90835  1.0000
  H   H71       1.0  0.21929  0.32149  0.97853  1.0000
  H   H72       1.0  0.22637  0.28753  0.93490  1.0000
  B   B16       1.0  0.27092  0.28901  0.89136  1.0000
  O   O31       1.0  0.38168  0.24983  0.73336  1.0000
  O   O32       1.0  0.20763  0.13042  0.79403  1.0000
  C   C157      1.0  0.21961  0.18262  0.22728  1.0000
  C   C158      1.0  0.23607  0.19056  0.20074  1.0000
  C   C159      1.0  0.25352  0.14152  0.23527  1.0000
  C   C160      1.0  0.26926  0.14885  0.20897  1.0000
  C   C161      1.0  0.26125  0.17300  0.19162  1.0000
  C   C162      1.0  0.22893  0.15767  0.24472  1.0000
  H   H73       1.0  0.27415  0.17812  0.17153  1.0000
  H   H74       1.0  0.21723  0.15111  0.26510  1.0000
  B   B17       1.0  0.10866  0.22587  0.28883  1.0000
  O   O33       1.0  0.26662  0.11665  0.24843  1.0000
  O   O34       1.0  0.20751  0.29249  0.13256  1.0000
  C   C163      1.0  0.71647  0.68209  0.72776  1.0000
  C   C164      1.0  0.73287  0.68963  0.70109  1.0000
  C   C165      1.0  0.75000  0.64073  0.73597  1.0000
  C   C166      1.0  0.76521  0.64739  0.70917  1.0000
  C   C167      1.0  0.75748  0.67149  0.69171  1.0000
  C   C168      1.0  0.72575  0.65735  0.74555  1.0000
  H   H75       1.0  0.77037  0.67628  0.67155  1.0000
  H   H76       1.0  0.71449  0.65153  0.76640  1.0000
  B   B18       1.0  0.60809  0.72930  0.79072  1.0000
  O   O35       1.0  0.76360  0.61633  0.74959  1.0000
  O   O36       1.0  0.70581  0.79112  0.63201  1.0000
  C   C169      1.0  0.78271  0.68288  0.27387  1.0000
  C   C170      1.0  0.76500  0.69156  0.29944  1.0000
  C   C171      1.0  0.74928  0.64140  0.26509  1.0000
  C   C172      1.0  0.73237  0.64956  0.29048  1.0000
  C   C173      1.0  0.73953  0.67416  0.30776  1.0000
  C   C174      1.0  0.77437  0.65726  0.25659  1.0000
  C   C175      1.0  0.94919  0.71827  0.14835  1.0000
  C   C176      1.0  0.96736  0.74404  0.15060  1.0000
  C   C177      1.0  0.96107  0.76494  0.17378  1.0000
  C   C178      1.0  0.93725  0.76042  0.19376  1.0000
  C   C179      1.0  0.91899  0.73462  0.19136  1.0000
  C   C180      1.0  0.92540  0.71363  0.16838  1.0000
  H   H77       1.0  0.72555  0.67986  0.32699  1.0000
  H   H78       1.0  0.78703  0.65005  0.23693  1.0000
  H   H79       1.0  0.95391  0.70161  0.13093  1.0000
  H   H80       1.0  0.91163  0.69351  0.16641  1.0000
  H   H81       1.0  0.97520  0.78477  0.17639  1.0000
  H   H82       1.0  0.93273  0.77681  0.21149  1.0000
  B   B19       1.0  0.89249  0.72925  0.21290  1.0000
  O   O37       1.0  0.73639  0.61642  0.25160  1.0000
  O   O38       1.0  0.79094  0.79409  0.36840  1.0000
  C   C181      1.0  0.28103  0.18410  0.77245  1.0000
  C   C182      1.0  0.26402  0.19250  0.79854  1.0000
  C   C183      1.0  0.24768  0.14235  0.76447  1.0000
  C   C184      1.0  0.23114  0.15048  0.79011  1.0000
  C   C185      1.0  0.23863  0.17513  0.80722  1.0000
  C   C186      1.0  0.27223  0.15863  0.75515  1.0000
  C   C187      1.0  0.44792  0.21884  0.64617  1.0000
  C   C188      1.0  0.46689  0.24389  0.64967  1.0000
  C   C189      1.0  0.46032  0.26461  0.67292  1.0000
  C   C190      1.0  0.43554  0.26055  0.69178  1.0000
  C   C191      1.0  0.41655  0.23544  0.68824  1.0000
  C   C192      1.0  0.42318  0.21466  0.66512  1.0000
  H   H83       1.0  0.22515  0.18083  0.82679  1.0000
  H   H84       1.0  0.28416  0.15195  0.73487  1.0000
  H   H85       1.0  0.45278  0.20237  0.62861  1.0000
  H   H86       1.0  0.40887  0.19505  0.66214  1.0000
  H   H87       1.0  0.47494  0.28394  0.67648  1.0000
  H   H88       1.0  0.43079  0.27677  0.70960  1.0000
  B   B20       1.0  0.38961  0.23057  0.70938  1.0000
  O   O39       1.0  0.23504  0.11693  0.75155  1.0000
  O   O40       1.0  0.29388  0.29255  0.86979  1.0000
  C   C193      1.0  0.71830  0.31704  0.77297  1.0000
  C   C194      1.0  0.73436  0.30937  0.79962  1.0000
  C   C195      1.0  0.75215  0.35833  0.76481  1.0000
  C   C196      1.0  0.76763  0.35102  0.79110  1.0000
  C   C197      1.0  0.75937  0.32705  0.80865  1.0000
  C   C198      1.0  0.72780  0.34192  0.75535  1.0000
  H   H89       1.0  0.77194  0.32224  0.82887  1.0000
  H   H90       1.0  0.71640  0.34821  0.73484  1.0000
  B   B21       1.0  0.61039  0.27077  0.70959  1.0000
  O   O41       1.0  0.76531  0.38332  0.75169  1.0000
  O   O42       1.0  0.70451  0.20914  0.86981  1.0000
  C   C199      1.0  0.21986  0.81449  0.27181  1.0000
  C   C200      1.0  0.23556  0.80651  0.29856  1.0000
  C   C201      1.0  0.25433  0.85538  0.26420  1.0000
  C   C202      1.0  0.26918  0.84800  0.29082  1.0000
  C   C203      1.0  0.26047  0.82403  0.30811  1.0000
  C   C204      1.0  0.22989  0.83930  0.25436  1.0000
  H   H91       1.0  0.27253  0.81915  0.32860  1.0000
  H   H92       1.0  0.21877  0.84574  0.23374  1.0000
  B   B22       1.0  0.11039  0.77114  0.20889  1.0000
  O   O43       1.0  0.26800  0.88027  0.25144  1.0000
  O   O44       1.0  0.20306  0.70756  0.36961  1.0000
  C   C205      1.0  0.28084  0.81490  0.72657  1.0000
  C   C206      1.0  0.26399  0.80597  0.70076  1.0000
  C   C207      1.0  0.24625  0.85540  0.73521  1.0000
  C   C208      1.0  0.22992  0.84695  0.70973  1.0000
  C   C209      1.0  0.23806  0.82257  0.69244  1.0000
  C   C210      1.0  0.27127  0.83993  0.74414  1.0000
  C   C211      1.0  0.44704  0.78481  0.85307  1.0000
  C   C212      1.0  0.46596  0.75963  0.85004  1.0000
  C   C213      1.0  0.46055  0.73936  0.82619  1.0000
  C   C214      1.0  0.43677  0.74380  0.80645  1.0000
  C   C215      1.0  0.41763  0.76886  0.80973  1.0000
  C   C216      1.0  0.42327  0.78935  0.83328  1.0000
  H   H93       1.0  0.22482  0.81661  0.67291  1.0000
  H   H94       1.0  0.28303  0.84718  0.76418  1.0000
  H   H95       1.0  0.45115  0.80112  0.87091  1.0000
  H   H96       1.0  0.40892  0.80900  0.83595  1.0000
  H   H97       1.0  0.47538  0.72014  0.82284  1.0000
  H   H98       1.0  0.43291  0.72787  0.78822  1.0000
  B   B23       1.0  0.39117  0.77343  0.78826  1.0000
  O   O45       1.0  0.23321  0.88053  0.74834  1.0000
  O   O46       1.0  0.29849  0.70880  0.62724  1.0000
  C   C217      1.0  0.78104  0.31634  0.22723  1.0000
  C   C218      1.0  0.76426  0.30788  0.20118  1.0000
  C   C219      1.0  0.74740  0.35781  0.23552  1.0000
  C   C220      1.0  0.73105  0.34962  0.20995  1.0000
  C   C221      1.0  0.73889  0.32518  0.19261  1.0000
  C   C222      1.0  0.77214  0.34184  0.24452  1.0000
  H   H99       1.0  0.72585  0.31979  0.17278  1.0000
  H   H100      1.0  0.78435  0.34898  0.26434  1.0000
  B   B24       1.0  0.88968  0.27071  0.28940  1.0000
  O   O47       1.0  0.73476  0.38332  0.24840  1.0000
  O   O48       1.0  0.79657  0.20910  0.12867  1.0000
  C   C223      1.0  0.46841  0.47561  0.43251  1.0000
  C   C224      1.0  0.48506  0.44932  0.44035  1.0000
  C   C225      1.0  0.50195  0.48368  0.39071  1.0000
  C   C226      1.0  0.51765  0.45742  0.39784  1.0000
  C   C227      1.0  0.50988  0.44018  0.42222  1.0000
  C   C228      1.0  0.47759  0.49312  0.40739  1.0000
  H   H101      1.0  0.52278  0.42016  0.42715  1.0000
  H   H102      1.0  0.46605  0.51364  0.40123  1.0000
  B   B25       1.0  0.35830  0.53677  0.47832  1.0000
  O   O49       1.0  0.51499  0.49683  0.36559  1.0000
  O   O50       1.0  0.45890  0.38195  0.54379  1.0000
  C   C229      1.0  0.96809  0.97420  0.93042  1.0000
  C   C230      1.0  0.98586  0.94937  0.94033  1.0000
  C   C231      1.0  0.00236  0.98147  0.88915  1.0000
  C   C232      1.0  0.01965  0.95703  0.89865  1.0000
  C   C233      1.0  0.01205  0.94089  0.92386  1.0000
  C   C234      1.0  0.97689  0.99035  0.90431  1.0000
  H   H103      1.0  0.02600  0.92216  0.93067  1.0000
  H   H104      1.0  0.96430  0.00949  0.89621  1.0000
  B   B26       1.0  0.85969  0.03913  0.97521  1.0000
  O   O51       1.0  0.01523  0.99384  0.86365  1.0000
  O   O52       1.0  0.95325  0.88024  0.04086  1.0000
  C   C235      1.0  0.03165  0.52232  0.93385  1.0000
  C   C236      1.0  0.01537  0.54891  0.94192  1.0000
  C   C237      1.0  0.99814  0.51444  0.89234  1.0000
  C   C238      1.0  0.98286  0.54102  0.89964  1.0000
  C   C239      1.0  0.99080  0.55834  0.92400  1.0000
  C   C240      1.0  0.02237  0.50482  0.90870  1.0000
  C   C241      1.0  0.19767  0.39486  0.96920  1.0000
  C   C242      1.0  0.21672  0.39942  0.99398  1.0000
  C   C243      1.0  0.21055  0.42384  0.01340  1.0000
  C   C244      1.0  0.18622  0.44281  0.00834  1.0000
  C   C245      1.0  0.16710  0.43818  0.98358  1.0000
  C   C246      1.0  0.17331  0.41389  0.96406  1.0000
  H   H105      1.0  0.97851  0.57885  0.92885  1.0000
  H   H106      1.0  0.03395  0.48436  0.90210  1.0000
  H   H107      1.0  0.20216  0.37639  0.95365  1.0000
  H   H108      1.0  0.15899  0.41004  0.94465  1.0000
  H   H109      1.0  0.22519  0.42824  0.03248  1.0000
  H   H110      1.0  0.18185  0.46156  0.02356  1.0000
  B   B27       1.0  0.14051  0.45950  0.97834  1.0000
  O   O53       1.0  0.98518  0.50146  0.86712  1.0000
  O   O54       1.0  0.04680  0.62114  0.04091  1.0000
  C   C247      1.0  0.53218  0.02101  0.43472  1.0000
  C   C248      1.0  0.51556  0.04736  0.44290  1.0000
  C   C249      1.0  0.49781  0.01199  0.39423  1.0000
  C   C250      1.0  0.48212  0.03826  0.40175  1.0000
  C   C251      1.0  0.49027  0.05602  0.42566  1.0000
  C   C252      1.0  0.52265  0.00304  0.41001  1.0000
  C   C253      1.0  0.69948  0.89595  0.46915  1.0000
  C   C254      1.0  0.71733  0.89900  0.49501  1.0000
  C   C255      1.0  0.71053  0.92243  0.51542  1.0000
  C   C256      1.0  0.68670  0.94200  0.51022  1.0000
  C   C257      1.0  0.66877  0.93883  0.48436  1.0000
  C   C258      1.0  0.67556  0.91548  0.46393  1.0000
  H   H111      1.0  0.47757  0.07625  0.43059  1.0000
  H   H112      1.0  0.53448  0.98278  0.40321  1.0000
  H   H113      1.0  0.70456  0.87827  0.45289  1.0000
  H   H114      1.0  0.66209  0.91283  0.44373  1.0000
  H   H115      1.0  0.72426  0.92556  0.53540  1.0000
  H   H116      1.0  0.68180  0.96000  0.52620  1.0000
  B   B28       1.0  0.64244  0.96029  0.47864  1.0000
  O   O55       1.0  0.48459  0.99860  0.36940  1.0000
  O   O56       1.0  0.54696  0.12086  0.54083  1.0000
  C   C259      1.0  0.96772  0.02393  0.56730  1.0000
  C   C260      1.0  0.98501  0.04931  0.55782  1.0000
  C   C261      1.0  0.00191  0.01649  0.60815  1.0000
  C   C262      1.0  0.01875  0.04139  0.59893  1.0000
  C   C263      1.0  0.01085  0.05803  0.57430  1.0000
  C   C264      1.0  0.97657  0.00750  0.59311  1.0000
  C   C265      1.0  0.80222  0.89558  0.53448  1.0000
  C   C266      1.0  0.78359  0.89863  0.50923  1.0000
  C   C267      1.0  0.78989  0.92194  0.48875  1.0000
  C   C268      1.0  0.81403  0.94136  0.49323  1.0000
  C   C269      1.0  0.83270  0.93824  0.51854  1.0000
  C   C270      1.0  0.82639  0.91503  0.53905  1.0000
  H   H117      1.0  0.02426  0.07741  0.56817  1.0000
  H   H118      1.0  0.96395  0.98827  0.60114  1.0000
  H   H119      1.0  0.79757  0.87804  0.55085  1.0000
  H   H120      1.0  0.84051  0.91247  0.55879  1.0000
  H   H121      1.0  0.77544  0.92511  0.46933  1.0000
  H   H122      1.0  0.81849  0.95924  0.47717  1.0000
  B   B29       1.0  0.85902  0.95993  0.52371  1.0000
  O   O57       1.0  0.01492  0.00424  0.63349  1.0000
  O   O58       1.0  0.95298  0.11960  0.45854  1.0000
  C   C271      1.0  0.46797  0.52496  0.06615  1.0000
  C   C272      1.0  0.48484  0.55104  0.05790  1.0000
  C   C273      1.0  0.50208  0.51629  0.10687  1.0000
  C   C274      1.0  0.51856  0.54184  0.09879  1.0000
  C   C275      1.0  0.51070  0.55923  0.07466  1.0000
  C   C276      1.0  0.47714  0.50740  0.09112  1.0000
  C   C277      1.0  0.30207  0.39846  0.03307  1.0000
  C   C278      1.0  0.28330  0.40089  0.00784  1.0000
  C   C279      1.0  0.28957  0.42369  0.98678  1.0000
  C   C280      1.0  0.31390  0.44306  0.99057  1.0000
  C   C281      1.0  0.33277  0.44054  0.01581  1.0000
  C   C282      1.0  0.32632  0.41797  0.03702  1.0000
  H   H123      1.0  0.52435  0.57854  0.06881  1.0000
  H   H124      1.0  0.46525  0.48722  0.09781  1.0000
  H   H125      1.0  0.29752  0.38128  0.04985  1.0000
  H   H126      1.0  0.34045  0.41583  0.05678  1.0000
  H   H127      1.0  0.27503  0.42643  0.96735  1.0000
  H   H128      1.0  0.31836  0.46046  0.97400  1.0000
  B   B30       1.0  0.35963  0.46177  0.02038  1.0000
  O   O59       1.0  0.51515  0.50306  0.13174  1.0000
  O   O60       1.0  0.45452  0.62256  0.95903  1.0000
  C   C283      1.0  0.53170  0.98002  0.06662  1.0000
  C   C284      1.0  0.51499  0.95384  0.05827  1.0000
  C   C285      1.0  0.49877  0.98740  0.10900  1.0000
  C   C286      1.0  0.48235  0.96184  0.10071  1.0000
  C   C287      1.0  0.48972  0.94502  0.07577  1.0000
  C   C288      1.0  0.52313  0.99690  0.09253  1.0000
  C   C289      1.0  0.69786  0.10585  0.02988  1.0000
  C   C290      1.0  0.71708  0.10167  0.00499  1.0000
  C   C291      1.0  0.70986  0.07909  0.98385  1.0000
  C   C292      1.0  0.68427  0.06139  0.98742  1.0000
  C   C293      1.0  0.66516  0.06549  0.01250  1.0000
  C   C294      1.0  0.67233  0.08804  0.03359  1.0000
  H   H129      1.0  0.47620  0.92560  0.06997  1.0000
  H   H130      1.0  0.53512  0.01698  0.09944  1.0000
  H   H131      1.0  0.70308  0.12301  0.04658  1.0000
  H   H132      1.0  0.65777  0.09134  0.05308  1.0000
  H   H133      1.0  0.72460  0.07524  0.96455  1.0000
  H   H134      1.0  0.67906  0.04409  0.97083  1.0000
  B   B31       1.0  0.63794  0.04497  0.01762  1.0000
  O   O61       1.0  0.48629  0.99991  0.13481  1.0000
  O   O62       1.0  0.54688  0.88180  0.95907  1.0000
  C   C295      1.0  0.03231  0.47531  0.56734  1.0000
  C   C296      1.0  0.01417  0.45055  0.55774  1.0000
  C   C297      1.0  0.99860  0.48388  0.60887  1.0000
  C   C298      1.0  0.98041  0.46015  0.59907  1.0000
  C   C299      1.0  0.98760  0.44327  0.57406  1.0000
  C   C300      1.0  0.02425  0.49184  0.59361  1.0000
  H   H135      1.0  0.97293  0.42504  0.56723  1.0000
  H   H136      1.0  0.03764  0.51045  0.60185  1.0000
  B   B32       1.0  0.14001  0.53928  0.52080  1.0000
  O   O63       1.0  0.98623  0.49671  0.63459  1.0000
  O   O64       1.0  0.04544  0.37907  0.45758  1.0000
  C   C301      1.0  0.47683  0.43227  0.46720  1.0000
  C   C302      1.0  0.45178  0.44153  0.48531  1.0000
  C   C303      1.0  0.48584  0.39164  0.50135  1.0000
  C   C304      1.0  0.46168  0.40101  0.51937  1.0000
  C   C305      1.0  0.44455  0.42552  0.51200  1.0000
  C   C306      1.0  0.49394  0.40675  0.47569  1.0000
  H   H137      1.0  0.42606  0.43211  0.52657  1.0000
  H   H138      1.0  0.51312  0.39905  0.46264  1.0000
  B   B33       1.0  0.53895  0.47773  0.35759  1.0000
  O   O65       1.0  0.49870  0.36629  0.51378  1.0000
  O   O66       1.0  0.37895  0.53946  0.45447  1.0000
  C   C307      1.0  0.97680  0.93266  0.96715  1.0000
  C   C308      1.0  0.95053  0.94147  0.98367  1.0000
  C   C309      1.0  0.98419  0.89197  0.00173  1.0000
  C   C310      1.0  0.95797  0.90006  0.01733  1.0000
  C   C311      1.0  0.94099  0.92435  0.00891  1.0000
  C   C312      1.0  0.99385  0.90752  0.97685  1.0000
  C   C313      1.0  0.10623  0.96812  0.80112  1.0000
  C   C314      1.0  0.10112  0.99226  0.78145  1.0000
  C   C315      1.0  0.07630  0.01113  0.78720  1.0000
  C   C316      1.0  0.05734  0.00609  0.81171  1.0000
  C   C317      1.0  0.06243  0.98183  0.83134  1.0000
  C   C318      1.0  0.08723  0.96296  0.82565  1.0000
  H   H139      1.0  0.92062  0.92977  0.02130  1.0000
  H   H140      1.0  0.01402  0.90025  0.96516  1.0000
  H   H141      1.0  0.12505  0.95303  0.79695  1.0000
  H   H142      1.0  0.09149  0.94407  0.84051  1.0000
  H   H143      1.0  0.07160  0.02970  0.77205  1.0000
  H   H144      1.0  0.03825  0.02088  0.81577  1.0000
  B   B34       1.0  0.04087  0.97621  0.85780  1.0000
  O   O67       1.0  0.99686  0.86697  0.01515  1.0000
  O   O68       1.0  0.87891  0.03948  0.94999  1.0000
  C   C319      1.0  0.52409  0.93606  0.03204  1.0000
  C   C320      1.0  0.54903  0.94551  0.01401  1.0000
  C   C321      1.0  0.51777  0.89312  0.99977  1.0000
  C   C322      1.0  0.54241  0.90217  0.98234  1.0000
  C   C323      1.0  0.55819  0.92788  0.98884  1.0000
  C   C324      1.0  0.50835  0.90930  0.02445  1.0000
  H   H145      1.0  0.57722  0.93408  0.97487  1.0000
  H   H146      1.0  0.48932  0.90133  0.03748  1.0000
  B   B35       1.0  0.46187  0.98114  0.14197  1.0000
  O   O69       1.0  0.50590  0.86692  0.98782  1.0000
  O   O70       1.0  0.61823  0.04701  0.04241  1.0000
  C   C325      1.0  0.02313  0.43286  0.53132  1.0000
  C   C326      1.0  0.04913  0.44136  0.51425  1.0000
  C   C327      1.0  0.01567  0.39098  0.49767  1.0000
  C   C328      1.0  0.04117  0.39925  0.48109  1.0000
  C   C329      1.0  0.05799  0.42400  0.48875  1.0000
  C   C330      1.0  0.00637  0.40705  0.52257  1.0000
  H   H147      1.0  0.07761  0.42970  0.47540  1.0000
  H   H148      1.0  0.98668  0.39976  0.53502  1.0000
  B   B36       1.0  0.95991  0.48006  0.64015  1.0000
  O   O71       1.0  0.00312  0.36539  0.48492  1.0000
  O   O72       1.0  0.12006  0.54101  0.54541  1.0000
  C   C331      1.0  0.02423  0.56648  0.96831  1.0000
  C   C332      1.0  0.05042  0.55827  0.98487  1.0000
  C   C333      1.0  0.01638  0.60818  0.00202  1.0000
  C   C334      1.0  0.04246  0.60066  0.01773  1.0000
  C   C335      1.0  0.05953  0.57609  0.00986  1.0000
  C   C336      1.0  0.00688  0.59172  0.97764  1.0000
  C   C337      1.0  0.89759  0.53268  0.80286  1.0000
  C   C338      1.0  0.90033  0.50748  0.78378  1.0000
  C   C339      1.0  0.92361  0.48680  0.78944  1.0000
  C   C340      1.0  0.94314  0.49091  0.81351  1.0000
  C   C341      1.0  0.94027  0.51609  0.83269  1.0000
  C   C342      1.0  0.91723  0.53694  0.82688  1.0000
  H   H149      1.0  0.07936  0.57075  0.02283  1.0000
  H   H150      1.0  0.98642  0.59814  0.96624  1.0000
  H   H151      1.0  0.88010  0.54923  0.79871  1.0000
  H   H152      1.0  0.91487  0.55664  0.84133  1.0000
  H   H153      1.0  0.92662  0.46747  0.77457  1.0000
  H   H154      1.0  0.96092  0.47463  0.81749  1.0000
  B   B37       1.0  0.96171  0.52094  0.85922  1.0000
  O   O73       1.0  0.00328  0.63333  0.01512  1.0000
  O   O74       1.0  0.11886  0.45598  0.95574  1.0000
  C   C343      1.0  0.52466  0.06545  0.46879  1.0000
  C   C344      1.0  0.55131  0.05793  0.48488  1.0000
  C   C345      1.0  0.51649  0.10720  0.50227  1.0000
  C   C346      1.0  0.54289  0.10025  0.51771  1.0000
  C   C347      1.0  0.56039  0.07603  0.50969  1.0000
  C   C348      1.0  0.50699  0.09047  0.47809  1.0000
  C   C349      1.0  0.39740  0.03050  0.30463  1.0000
  C   C350      1.0  0.40013  0.00542  0.28541  1.0000
  C   C351      1.0  0.42284  0.98424  0.29150  1.0000
  C   C352      1.0  0.44199  0.98787  0.31595  1.0000
  C   C353      1.0  0.43925  0.01304  0.33517  1.0000
  C   C354      1.0  0.41663  0.03428  0.32906  1.0000
  H   H155      1.0  0.58049  0.07117  0.52242  1.0000
  H   H156      1.0  0.48631  0.09648  0.46687  1.0000
  H   H157      1.0  0.38024  0.04732  0.30027  1.0000
  H   H158      1.0  0.41428  0.05394  0.34358  1.0000
  H   H159      1.0  0.42569  0.96482  0.27673  1.0000
  H   H160      1.0  0.45937  0.97124  0.32024  1.0000
  B   B38       1.0  0.46064  0.01774  0.36179  1.0000
  O   O75       1.0  0.50311  0.13216  0.51534  1.0000
  O   O76       1.0  0.62090  0.95630  0.45597  1.0000
  C   C355      1.0  0.97599  0.06631  0.53134  1.0000
  C   C356      1.0  0.94942  0.05809  0.51535  1.0000
  C   C357      1.0  0.98391  0.10705  0.49695  1.0000
  C   C358      1.0  0.95746  0.09952  0.48181  1.0000
  C   C359      1.0  0.94022  0.07532  0.49017  1.0000
  C   C360      1.0  0.99357  0.09107  0.52140  1.0000
  H   H161      1.0  0.92020  0.06986  0.47750  1.0000
  H   H162      1.0  0.01426  0.09751  0.53242  1.0000
  B   B39       1.0  0.04007  0.02235  0.63950  1.0000
  O   O77       1.0  0.99697  0.13183  0.48340  1.0000
  O   O78       1.0  0.88013  0.95748  0.54698  1.0000
  C   C361      1.0  0.47554  0.56908  0.03222  1.0000
  C   C362      1.0  0.45082  0.55953  0.01409  1.0000
  C   C363      1.0  0.48221  0.61212  0.00043  1.0000
  C   C364      1.0  0.45839  0.60248  0.98237  1.0000
  C   C365      1.0  0.44245  0.57679  0.98866  1.0000
  C   C366      1.0  0.49108  0.59608  0.02515  1.0000
  C   C367      1.0  0.60320  0.53265  0.19611  1.0000
  C   C368      1.0  0.60002  0.50739  0.21480  1.0000
  C   C369      1.0  0.57695  0.48665  0.20828  1.0000
  C   C370      1.0  0.55793  0.49087  0.18387  1.0000
  C   C371      1.0  0.56120  0.51616  0.16514  1.0000
  C   C372      1.0  0.58413  0.53696  0.17170  1.0000
  H   H163      1.0  0.42392  0.57036  0.97429  1.0000
  H   H164      1.0  0.50955  0.60423  0.03871  1.0000
  H   H165      1.0  0.62058  0.54917  0.20090  1.0000
  H   H166      1.0  0.58676  0.55673  0.15758  1.0000
  H   H167      1.0  0.57367  0.46719  0.22271  1.0000
  H   H168      1.0  0.54023  0.47463  0.17923  1.0000
  B   B40       1.0  0.53993  0.52139  0.13863  1.0000
  O   O79       1.0  0.49387  0.63866  0.98906  1.0000
  O   O80       1.0  0.37894  0.46058  0.04529  1.0000
  C   C373      1.0  0.43364  0.46730  0.47628  1.0000
  C   C374      1.0  0.44196  0.48421  0.45023  1.0000
  C   C375      1.0  0.39122  0.49991  0.48407  1.0000
  C   C376      1.0  0.39937  0.51641  0.45856  1.0000
  C   C377      1.0  0.42412  0.50912  0.44144  1.0000
  C   C378      1.0  0.40768  0.47551  0.49321  1.0000
  H   H169      1.0  0.42934  0.52225  0.42162  1.0000
  H   H170      1.0  0.40051  0.46297  0.51284  1.0000
  B   B41       1.0  0.48167  0.36039  0.53984  1.0000
  O   O81       1.0  0.36543  0.51219  0.49678  1.0000
  O   O82       1.0  0.54083  0.45315  0.37730  1.0000
  C   C379      1.0  0.93338  0.96784  0.97442  1.0000
  C   C380      1.0  0.94137  0.98333  0.94742  1.0000
  C   C381      1.0  0.89253  0.00236  0.98210  1.0000
  C   C382      1.0  0.89938  0.01657  0.95488  1.0000
  C   C383      1.0  0.92351  0.00784  0.93750  1.0000
  C   C384      1.0  0.90877  0.97820  0.99216  1.0000
  H   H171      1.0  0.92841  0.01967  0.91678  1.0000
  H   H172      1.0  0.90276  0.96779  0.01336  1.0000
  B   B42       1.0  0.97757  0.86007  0.03934  1.0000
  O   O83       1.0  0.86803  0.01641  0.99540  1.0000
  O   O84       1.0  0.04378  0.95315  0.87912  1.0000
  C   C385      1.0  0.93196  0.03193  0.52480  1.0000
  C   C386      1.0  0.94112  0.01493  0.55040  1.0000
  C   C387      1.0  0.89055  0.99804  0.51784  1.0000
  C   C388      1.0  0.89957  0.98142  0.54286  1.0000
  C   C389      1.0  0.92433  0.98928  0.55935  1.0000
  C   C390      1.0  0.90605  0.02303  0.50846  1.0000
  C   C391      1.0  0.96644  0.19674  0.39623  1.0000
  C   C392      1.0  0.99142  0.21578  0.39967  1.0000
  C   C393      1.0  0.01181  0.20960  0.42300  1.0000
  C   C394      1.0  0.00757  0.18513  0.44200  1.0000
  C   C395      1.0  0.98251  0.16608  0.43853  1.0000
  C   C396      1.0  0.96200  0.17235  0.41538  1.0000
  H   H173      1.0  0.93052  0.97582  0.57860  1.0000
  H   H174      1.0  0.89830  0.03525  0.48896  1.0000
  H   H175      1.0  0.95027  0.20118  0.37852  1.0000
  H   H176      1.0  0.94244  0.15795  0.41252  1.0000
  H   H177      1.0  0.03110  0.22427  0.42641  1.0000
  H   H178      1.0  0.02359  0.18066  0.45985  1.0000
  B   B43       1.0  0.97754  0.13943  0.45981  1.0000
  O   O85       1.0  0.86515  0.98500  0.50559  1.0000
  O   O86       1.0  0.04267  0.04550  0.61825  1.0000
  C   C397      1.0  0.43386  0.53255  0.02221  1.0000
  C   C398      1.0  0.44163  0.51624  0.04871  1.0000
  C   C399      1.0  0.39295  0.49827  0.01379  1.0000
  C   C400      1.0  0.39968  0.48330  0.04055  1.0000
  C   C401      1.0  0.42370  0.49150  0.05800  1.0000
  C   C402      1.0  0.40925  0.52278  0.00440  1.0000
  C   C403      1.0  0.46913  0.69764  0.89553  1.0000
  C   C404      1.0  0.49073  0.71993  0.90163  1.0000
  C   C405      1.0  0.50755  0.71754  0.92829  1.0000
  C   C406      1.0  0.50319  0.69362  0.94799  1.0000
  C   C407      1.0  0.48164  0.67124  0.94184  1.0000
  C   C408      1.0  0.46465  0.67376  0.91530  1.0000
  H   H179      1.0  0.42840  0.47911  0.07838  1.0000
  H   H180      1.0  0.40293  0.53426  0.98393  1.0000
  H   H181      1.0  0.45556  0.69914  0.87528  1.0000
  H   H182      1.0  0.44779  0.65677  0.91026  1.0000
  H   H183      1.0  0.52400  0.73484  0.93374  1.0000
  H   H184      1.0  0.51645  0.69226  0.96843  1.0000
  B   B44       1.0  0.47672  0.64463  0.96325  1.0000
  O   O87       1.0  0.36817  0.48485  0.00053  1.0000
  O   O88       1.0  0.54243  0.54542  0.11831  1.0000
  C   C409      1.0  0.56534  0.97291  0.02182  1.0000
  C   C410      1.0  0.55738  0.98947  0.04835  1.0000
  C   C411      1.0  0.60538  0.00778  0.01223  1.0000
  C   C412      1.0  0.59816  0.02352  0.03865  1.0000
  C   C413      1.0  0.57454  0.01510  0.05677  1.0000
  C   C414      1.0  0.58954  0.98282  0.00340  1.0000
  H   H185      1.0  0.56974  0.02782  0.07710  1.0000
  H   H186      1.0  0.59587  0.97108  0.98290  1.0000
  B   B45       1.0  0.52372  0.86056  0.96238  1.0000
  O   O89       1.0  0.63007  0.02100  0.99854  1.0000
  O   O90       1.0  0.45914  0.95752  0.12106  1.0000
  C   C415      1.0  0.06664  0.46773  0.52313  1.0000
  C   C416      1.0  0.05869  0.48408  0.54979  1.0000
  C   C417      1.0  0.10772  0.50180  0.51489  1.0000
  C   C418      1.0  0.10017  0.51747  0.54126  1.0000
  C   C419      1.0  0.07612  0.50928  0.55883  1.0000
  C   C420      1.0  0.09162  0.47719  0.50547  1.0000
  H   H187      1.0  0.07086  0.52221  0.57892  1.0000
  H   H188      1.0  0.09813  0.46568  0.48489  1.0000
  B   B46       1.0  0.02168  0.35841  0.46010  1.0000
  O   O91       1.0  0.13254  0.51519  0.50161  1.0000
  O   O92       1.0  0.95598  0.45746  0.61828  1.0000
  C   C421      1.0  0.06755  0.53153  0.97612  1.0000
  C   C422      1.0  0.05801  0.51353  0.95116  1.0000
  C   C423      1.0  0.10899  0.49779  0.98368  1.0000
  C   C424      1.0  0.09952  0.48012  0.95939  1.0000
  C   C425      1.0  0.07453  0.48735  0.94299  1.0000
  C   C426      1.0  0.09359  0.52316  0.99247  1.0000
  H   H189      1.0  0.06809  0.47309  0.92426  1.0000
  H   H190      1.0  0.10148  0.53616  0.01153  1.0000
  B   B47       1.0  0.02239  0.64112  0.03904  1.0000
  O   O93       1.0  0.13471  0.48532  0.99578  1.0000
  O   O94       1.0  0.96017  0.54563  0.87902  1.0000
  C   C427      1.0  0.56884  0.03152  0.47597  1.0000
  C   C428      1.0  0.55911  0.01297  0.45149  1.0000
  C   C429      1.0  0.61077  0.99848  0.48333  1.0000
  C   C430      1.0  0.60126  0.98028  0.45942  1.0000
  C   C431      1.0  0.57590  0.98695  0.44333  1.0000
  C   C432      1.0  0.59532  0.02387  0.49187  1.0000
  H   H191      1.0  0.56919  0.97235  0.42497  1.0000
  H   H192      1.0  0.60351  0.03735  0.51048  1.0000
  B   B48       1.0  0.52220  0.14038  0.53913  1.0000
  O   O95       1.0  0.63654  0.98638  0.49562  1.0000
  O   O96       1.0  0.45889  0.04236  0.38170  1.0000
  Si  Si1       1.0  0.37544  0.99906  0.25181  1.0000
  Si  Si2       1.0  0.12595  0.99975  0.74797  1.0000
  Si  Si3       1.0  0.62487  0.50064  0.24813  1.0000
  Si  Si4       1.0  0.87493  0.50062  0.75085  1.0000
  Si  Si5       1.0  0.25047  0.37508  0.00135  1.0000
  Si  Si6       1.0  0.75110  0.12573  0.99832  1.0000
  Si  Si7       1.0  0.24992  0.62405  0.49853  1.0000
  Si  Si8       1.0  0.75030  0.87373  0.50216  1.0000
  Si  Si9       1.0  0.99892  0.24871  0.37444  1.0000
  Si  Si10      1.0  0.00010  0.75104  0.12472  1.0000
  Si  Si11      1.0  0.50048  0.25038  0.62479  1.0000
  Si  Si12      1.0  0.49836  0.75250  0.87590  1.0000
  C   C433      1.0  0.80906  0.06094  0.01168  1.0000
  C   C434      1.0  0.82216  0.06362  0.98659  1.0000
  C  Sn1       1.0  0.81958  0.08383  0.96280  1.0000
  C  Sn2       1.0  0.79764  0.10693  0.96422  1.0000
  C   C435      1.0  0.77885  0.10922  0.98943  1.0000
  C   C436      1.0  0.78743  0.08372  0.01310  1.0000
  H   H193      1.0  0.81122  0.04520  0.03001  1.0000
  O  Te1       1.0  0.83864  0.08104  0.93790  1.0000
  O  Te2       1.0  0.79458  0.12744  0.94076  1.0000
  H   H194      1.0  0.77280  0.08565  0.03253  1.0000
  Mg  Mg1       1.0  0.82578  0.11439  0.91160  1.0000
  C   C437      1.0  0.73569  0.18122  0.04239  1.0000
  C   C438      1.0  0.75396  0.15801  0.03152  1.0000
  C  Sn3       1.0  0.77958  0.14948  0.04732  1.0000
  C  Sn4       1.0  0.78699  0.16451  0.07451  1.0000
  C   C439      1.0  0.76855  0.18769  0.08521  1.0000
  C   C440      1.0  0.74296  0.19604  0.06921  1.0000
  H   H195      1.0  0.71588  0.18767  0.03002  1.0000
  O  Te3       1.0  0.79760  0.12625  0.03614  1.0000
  O  Te4       1.0  0.81246  0.15644  0.09076  1.0000
  H   H196      1.0  0.72881  0.21400  0.07764  1.0000
  Mg  Mg2       1.0  0.82997  0.12340  0.06635  1.0000
  C   C441      1.0  0.54595  0.76963  0.82434  1.0000
  C   C442      1.0  0.53246  0.75003  0.84483  1.0000
  C  Sn5       1.0  0.54502  0.72180  0.85015  1.0000
  C  Sn6       1.0  0.57159  0.71309  0.83465  1.0000
  C   C443      1.0  0.58493  0.73287  0.81421  1.0000
  C   C444      1.0  0.57216  0.76107  0.80904  1.0000
  H   H197      1.0  0.53608  0.79146  0.82035  1.0000
  O  Te5       1.0  0.53125  0.70249  0.87069  1.0000
  O  Te6       1.0  0.58463  0.68501  0.83955  1.0000
  H   H198      1.0  0.58262  0.77625  0.79319  1.0000
  Mg  Mg3       1.0  0.55751  0.66657  0.86970  1.0000
  C   C445      1.0  0.94319  0.23705  0.30755  1.0000
  C   C446      1.0  0.91992  0.25802  0.30991  1.0000
  C  Sn7       1.0  0.92043  0.28004  0.33242  1.0000
  C  Sn8       1.0  0.94473  0.28104  0.35291  1.0000
  C   C447      1.0  0.96791  0.25998  0.35035  1.0000
  C   C448      1.0  0.96717  0.23803  0.32775  1.0000
  H   H199      1.0  0.94263  0.22008  0.29005  1.0000
  O  Te7       1.0  0.89700  0.30080  0.33447  1.0000
  O  Te8       1.0  0.94581  0.30281  0.37562  1.0000
  H   H200      1.0  0.98520  0.22182  0.32591  1.0000
  Mg  Mg4       1.0  0.90858  0.32620  0.36924  1.0000
  C   C449      1.0  0.28863  0.64849  0.55571  1.0000
  C   C450      1.0  0.26384  0.64697  0.53664  1.0000
  C  Sn9       1.0  0.24099  0.66839  0.53888  1.0000
  C  Sn10      1.0  0.24307  0.69174  0.56063  1.0000
  C   C451      1.0  0.26798  0.69307  0.57959  1.0000
  C   C452      1.0  0.29071  0.67152  0.57716  1.0000
  H   H201      1.0  0.30623  0.63182  0.55382  1.0000
  O  Te9       1.0  0.21636  0.66654  0.51967  1.0000
  O  Te10      1.0  0.22056  0.71345  0.56335  1.0000
  H   H202      1.0  0.30992  0.67271  0.59191  1.0000
  Mg  Mg5       1.0  0.19143  0.70138  0.53205  1.0000
  C   C453      1.0  0.35083  0.05619  0.21345  1.0000
  C   C454      1.0  0.35295  0.03754  0.23855  1.0000
  C  Sn11      1.0  0.33258  0.04056  0.26239  1.0000
  C  Sn12      1.0  0.30968  0.06268  0.26101  1.0000
  C   C455      1.0  0.30774  0.08121  0.23579  1.0000
  C   C456      1.0  0.32825  0.07800  0.21207  1.0000
  H   H203      1.0  0.36669  0.05370  0.19508  1.0000
  O  Te11      1.0  0.33502  0.02176  0.28730  1.0000
  O  Te12      1.0  0.28902  0.06617  0.28452  1.0000
  H   H204      1.0  0.32659  0.09243  0.19263  1.0000
  Mg  Mg6       1.0  0.30158  0.03519  0.31368  1.0000
  C   C457      1.0  0.15850  0.07271  0.78704  1.0000
  C   C458      1.0  0.18433  0.08123  0.77125  1.0000
  C  Sn13      1.0  0.19316  0.06547  0.74541  1.0000
  C  Sn14      1.0  0.17576  0.04074  0.73525  1.0000
  C   C459      1.0  0.14995  0.03242  0.75120  1.0000
  C   C460      1.0  0.14132  0.04833  0.77703  1.0000
  H   H205      1.0  0.15181  0.08504  0.80702  1.0000
  O  Te13      1.0  0.21903  0.07427  0.72990  1.0000
  O  Te14      1.0  0.18407  0.02461  0.70949  1.0000
  H   H206      1.0  0.12131  0.04175  0.78925  1.0000
  Mg  Mg7       1.0  0.22115  0.04523  0.69604  1.0000
  C   C461      1.0  0.71005  0.16144  0.92856  1.0000
  C   C462      1.0  0.72694  0.18619  0.91916  1.0000
  C  Sn15      1.0  0.75431  0.19283  0.93286  1.0000
  C  Sn16      1.0  0.76493  0.17432  0.95641  1.0000
  C   C463      1.0  0.74788  0.14960  0.96564  1.0000
  C   C464      1.0  0.72051  0.14316  0.95178  1.0000
  H   H207      1.0  0.68888  0.15645  0.91783  1.0000
  O  Te15      1.0  0.77089  0.21765  0.92320  1.0000
  O  Te16      1.0  0.79222  0.18044  0.97049  1.0000
  H   H208      1.0  0.70746  0.12399  0.95905  1.0000
  Mg  Mg8       1.0  0.80671  0.21679  0.94938  1.0000
  C   C465      1.0  0.94171  0.51323  0.69458  1.0000
  C   C466      1.0  0.94125  0.49070  0.67257  1.0000
  C  Sn17      1.0  0.91816  0.46944  0.67224  1.0000
  C  Sn18      1.0  0.89513  0.47082  0.69439  1.0000
  C   C467      1.0  0.89578  0.49346  0.71630  1.0000
  C   C468      1.0  0.91899  0.51461  0.71643  1.0000
  H   H209      1.0  0.95966  0.52961  0.69467  1.0000
  O  Te17      1.0  0.91806  0.44707  0.65010  1.0000
  O  Te18      1.0  0.87178  0.44986  0.69458  1.0000
  H   H210      1.0  0.91932  0.53207  0.73346  1.0000
  Mg  Mg9       1.0  0.88148  0.42362  0.65976  1.0000
  C   C469      1.0  0.56941  0.51588  0.29253  1.0000
  C   C470      1.0  0.59468  0.49954  0.28335  1.0000
  C  Sn19      1.0  0.60244  0.47300  0.29806  1.0000
  C  Sn20      1.0  0.58452  0.46268  0.32240  1.0000
  C   C471      1.0  0.55928  0.47918  0.33140  1.0000
  C   C472      1.0  0.55172  0.50571  0.31653  1.0000
  H   H211      1.0  0.56355  0.53640  0.28101  1.0000
  O  Te19      1.0  0.62776  0.45696  0.28861  1.0000
  O  Te20      1.0  0.59176  0.43623  0.33749  1.0000
  H   H212      1.0  0.53215  0.51835  0.32363  1.0000
  Mg  Mg10      1.0  0.62843  0.42223  0.31629  1.0000
  C   C473      1.0  0.40043  0.96354  0.19220  1.0000
  C   C474      1.0  0.40083  0.98523  0.21504  1.0000
  C  Sn21      1.0  0.42125  0.00887  0.21399  1.0000
  C  Sn22      1.0  0.44184  0.01077  0.18959  1.0000
  C   C475      1.0  0.44145  0.98896  0.16684  1.0000
  C   C476      1.0  0.42072  0.96540  0.16812  1.0000
  H   H213      1.0  0.38438  0.94531  0.19318  1.0000
  O  Te21      1.0  0.42135  0.03035  0.23700  1.0000
  O  Te22      1.0  0.46269  0.03416  0.18797  1.0000
  H   H214      1.0  0.42040  0.94861  0.15043  1.0000
  Mg  Mg11      1.0  0.45404  0.05798  0.22476  1.0000
  C   C477      1.0  0.05760  0.21101  0.35081  1.0000
  C   C478      1.0  0.03723  0.23489  0.35160  1.0000
  C  Sn23      1.0  0.03833  0.25715  0.32957  1.0000
  C  Sn24      1.0  0.06024  0.25539  0.30633  1.0000
  C   C479      1.0  0.08050  0.23139  0.30572  1.0000
  C   C480      1.0  0.07921  0.20925  0.32789  1.0000
  H   H215      1.0  0.05660  0.19387  0.36795  1.0000
  O  Te23      1.0  0.01782  0.28086  0.33070  1.0000
  O  Te24      1.0  0.06183  0.27732  0.28401  1.0000
  H   H216      1.0  0.09497  0.19075  0.32726  1.0000
  Mg  Mg12      1.0  0.02898  0.30527  0.29521  1.0000
  C   C481      1.0  0.18078  0.95604  0.76394  1.0000
  C   C482      1.0  0.15764  0.96625  0.74552  1.0000
  C  Sn25      1.0  0.14820  0.94897  0.72101  1.0000
  C  Sn26      1.0  0.16223  0.92095  0.71488  1.0000
  C   C483      1.0  0.18534  0.91092  0.73346  1.0000
  C   C484      1.0  0.19462  0.92840  0.75792  1.0000
  H   H217      1.0  0.18795  0.96955  0.78287  1.0000
  O  Te25      1.0  0.12505  0.95951  0.70283  1.0000
  O  Te26      1.0  0.15322  0.90322  0.69054  1.0000
  H   H218      1.0  0.21252  0.92048  0.77219  1.0000
  Mg  Mg13      1.0  0.12071  0.92724  0.67230  1.0000
  C   C485      1.0  0.51492  0.30662  0.55866  1.0000
  C   C486      1.0  0.49198  0.32804  0.55834  1.0000
  C  Sn27      1.0  0.46964  0.32786  0.58053  1.0000
  C  Sn28      1.0  0.47034  0.30581  0.60345  1.0000
  C   C487      1.0  0.49340  0.28449  0.60360  1.0000
  C   C488      1.0  0.51564  0.28486  0.58127  1.0000
  H   H219      1.0  0.53213  0.30692  0.54140  1.0000
  O  Te27      1.0  0.44688  0.34942  0.57986  1.0000
  O  Te28      1.0  0.44831  0.30512  0.62591  1.0000
  H   H220      1.0  0.53340  0.26829  0.58155  1.0000
  Mg  Mg14      1.0  0.42190  0.33924  0.61538  1.0000
  C   C489      1.0  0.30519  0.55723  0.51227  1.0000
  C   C490      1.0  0.32623  0.55595  0.48885  1.0000
  C  Sn29      1.0  0.32612  0.57771  0.46630  1.0000
  C  Sn30      1.0  0.30453  0.60114  0.46727  1.0000
  C   C491      1.0  0.28360  0.60223  0.49081  1.0000
  C   C492      1.0  0.28390  0.58034  0.51326  1.0000
  H   H221      1.0  0.30544  0.54030  0.52965  1.0000
  O  Te29      1.0  0.34729  0.57609  0.44306  1.0000
  O  Te30      1.0  0.30393  0.62318  0.44503  1.0000
  H   H222      1.0  0.26762  0.58135  0.53140  1.0000
  Mg  Mg15      1.0  0.33739  0.61134  0.41796  1.0000
  C   C493      1.0  0.06945  0.98576  0.70543  1.0000
  C   C494      1.0  0.09562  0.00114  0.71334  1.0000
  C  Sn31      1.0  0.10433  0.02660  0.69734  1.0000
  C  Sn32      1.0  0.08667  0.03680  0.67298  1.0000
  C   C495      1.0  0.06051  0.02127  0.66525  1.0000
  C   C496      1.0  0.05200  0.99581  0.68141  1.0000
  H   H223      1.0  0.06269  0.96607  0.71795  1.0000
  O  Te31      1.0  0.13056  0.04169  0.70554  1.0000
  O  Te32      1.0  0.09506  0.06219  0.65661  1.0000
  H   H224      1.0  0.03172  0.98392  0.67530  1.0000
  Mg  Mg16      1.0  0.13266  0.07515  0.67638  1.0000
  C   C497      1.0  0.01562  0.79546  0.06987  1.0000
  C   C498      1.0  0.99906  0.78629  0.09500  1.0000
  C  Sn33      1.0  0.97242  0.80101  0.10283  1.0000
  C  Sn34      1.0  0.96221  0.82537  0.08512  1.0000
  C   C499      1.0  0.97892  0.83436  0.06002  1.0000
  C   C500      1.0  0.00555  0.81947  0.05239  1.0000
  H   H225      1.0  0.03622  0.78393  0.06396  1.0000
  O  Te33      1.0  0.95616  0.79157  0.12801  1.0000
  O  Te34      1.0  0.93565  0.84047  0.09243  1.0000
  H   H226      1.0  0.01835  0.82656  0.03292  1.0000
  Mg  Mg17      1.0  0.92136  0.81927  0.12886  1.0000
  C   C501      1.0  0.03622  0.69133  0.10190  1.0000
  C   C502      1.0  0.01458  0.71400  0.10026  1.0000
  C  Sn35      1.0  0.99235  0.71282  0.07825  1.0000
  C  Sn36      1.0  0.99182  0.68847  0.05752  1.0000
  C   C503      1.0  0.01356  0.66590  0.05936  1.0000
  C   C504      1.0  0.03571  0.66730  0.08147  1.0000
  H   H227      1.0  0.05336  0.69240  0.11902  1.0000
  O  Te35      1.0  0.97091  0.73566  0.07692  1.0000
  O  Te36      1.0  0.96984  0.68674  0.03530  1.0000
  H   H228      1.0  0.05245  0.64974  0.08274  1.0000
  Mg  Mg18      1.0  0.94548  0.72330  0.04261  1.0000
  C   C505      1.0  0.56166  0.28444  0.64631  1.0000
  C   C506      1.0  0.53951  0.26220  0.64706  1.0000
  C  Sn37      1.0  0.53854  0.24159  0.67065  1.0000
  C  Sn38      1.0  0.56018  0.24334  0.69390  1.0000
  C   C507      1.0  0.58224  0.26569  0.69295  1.0000
  C   C508      1.0  0.58300  0.28619  0.66923  1.0000
  H   H229      1.0  0.56224  0.30031  0.62797  1.0000
  O  Te37      1.0  0.51627  0.21950  0.67105  1.0000
  O  Te38      1.0  0.55973  0.22303  0.71775  1.0000
  H   H230      1.0  0.60014  0.30342  0.66867  1.0000
  Mg  Mg19      1.0  0.52497  0.19696  0.70830  1.0000
  C   C509      1.0  0.06020  0.78657  0.14702  1.0000
  C   C510      1.0  0.03917  0.76326  0.14661  1.0000
  C  Sn39      1.0  0.03966  0.74110  0.16876  1.0000
  C  Sn40      1.0  0.06163  0.74236  0.19171  1.0000
  C   C511      1.0  0.08256  0.76579  0.19194  1.0000
  C   C512      1.0  0.08187  0.78784  0.16967  1.0000
  H   H231      1.0  0.05967  0.80364  0.12980  1.0000
  O  Te39      1.0  0.01849  0.71795  0.16800  1.0000
  O  Te40      1.0  0.06262  0.72051  0.21412  1.0000
  H   H232      1.0  0.09815  0.80590  0.17000  1.0000
  Mg  Mg20      1.0  0.02898  0.69343  0.20348  1.0000
  C   C513      1.0  0.03919  0.32083  0.40819  1.0000
  C   C514      1.0  0.02120  0.33169  0.43170  1.0000
  C  Sn41      1.0  0.99532  0.31613  0.44033  1.0000
  C  Sn42      1.0  0.98736  0.28920  0.42510  1.0000
  C   C515      1.0  0.00552  0.27851  0.40163  1.0000
  C   C516      1.0  0.03137  0.29427  0.39317  1.0000
  H   H233      1.0  0.05920  0.33301  0.40166  1.0000
  O  Te41      1.0  0.97759  0.32730  0.46385  1.0000
  O  Te42      1.0  0.96162  0.27320  0.43327  1.0000
  H   H234      1.0  0.04531  0.28584  0.37498  1.0000
  Mg  Mg21      1.0  0.94467  0.29749  0.46673  1.0000
  C   C517      1.0  0.19126  0.60068  0.53636  1.0000
  C   C518      1.0  0.21309  0.59985  0.51367  1.0000
  C  Sn43      1.0  0.21080  0.57915  0.49005  1.0000
  C  Sn44      1.0  0.18616  0.55895  0.48919  1.0000
  C   C519      1.0  0.16442  0.55998  0.51199  1.0000
  C   C520      1.0  0.16694  0.58077  0.53552  1.0000
  H   H235      1.0  0.19320  0.61678  0.55456  1.0000
  O  Te43      1.0  0.23282  0.57861  0.46757  1.0000
  O  Te44      1.0  0.18331  0.53804  0.46584  1.0000
  H   H236      1.0  0.15002  0.58143  0.55308  1.0000
  Mg  Mg22      1.0  0.21906  0.54603  0.44043  1.0000
  C   C521      1.0  0.53975  0.17813  0.59043  1.0000
  C   C522      1.0  0.52164  0.16727  0.56722  1.0000
  C  Sn45      1.0  0.49573  0.18283  0.55902  1.0000
  C  Sn46      1.0  0.48786  0.20976  0.57437  1.0000
  C   C523      1.0  0.50615  0.22046  0.59754  1.0000
  C   C524      1.0  0.53202  0.20470  0.60557  1.0000
  H   H237      1.0  0.55979  0.16595  0.59663  1.0000
  O  Te45      1.0  0.47787  0.17165  0.53580  1.0000
  O  Te46      1.0  0.46209  0.22577  0.56663  1.0000
  H   H238      1.0  0.54605  0.21313  0.62352  1.0000
  Mg  Mg23      1.0  0.44496  0.20148  0.53346  1.0000
  C   C525      1.0  0.48237  0.79900  0.92943  1.0000
  C   C526      1.0  0.49939  0.78857  0.90503  1.0000
  C  Sn47      1.0  0.52760  0.80094  0.89894  1.0000
  C  Sn48      1.0  0.53893  0.82418  0.91769  1.0000
  C   C527      1.0  0.52173  0.83444  0.94206  1.0000
  C   C528      1.0  0.49352  0.82191  0.94794  1.0000
  H   H239      1.0  0.46055  0.78929  0.93399  1.0000
  O  Te47      1.0  0.54432  0.79026  0.87446  1.0000
  O  Te48      1.0  0.56706  0.83693  0.91213  1.0000
  H   H240      1.0  0.48035  0.82998  0.96685  1.0000
  Mg  Mg24      1.0  0.58140  0.81479  0.87606  1.0000
