data_image0
_chemical_formula_structural       C2HOCHC4HOHC3HOC3HOC3HOCHC4HOHC3HOCHC4HOHC5HOHC3HOCHC4HOHCHC4HOHCHC4HOHCHC4HOHCHC2HOC3HOC3HOCHC4HOHC3HOC3HOC5HOHC3HOCHC4HOHCHC4HOHCHB2C2B4C2B2C2BC2B2C2BC5SnCSn2CSnTe4Mg2SnCSn2CSnTe4Mg2SnCSn2CSnTe4Mg2SnCSn2CSnTe4Mg2SnCSn2CSnTe4Mg2SnCSn2CSnTe4Mg2
_chemical_formula_sum              "C123 H48 O24 B12 Sn24 Te24 Mg12"
_cell_length_a       28.4777
_cell_length_b       28.3457
_cell_length_c       28.2805
_cell_angle_alpha    90.1447
_cell_angle_beta     90.1567
_cell_angle_gamma    90.1029

_symmetry_space_group_name_H-M    'P1'
_space_group_IT_number       1

loop_
  _space_group_symop_operation_xyz
  'x, y, z'

loop_
  _atom_site_type_symbol
  _atom_site_label
  _atom_site_symmetry_multiplicity
  _atom_site_fract_x
  _atom_site_fract_y
  _atom_site_fract_z
  _atom_site_occupancy
  C   C1        1.0  0.77477  0.81113  0.15148  1.0000
  C   C2        1.0  0.70702  0.84749  0.11623  1.0000
  H   H1        1.0  0.73553  0.78293  0.09058  1.0000
  O   O1        1.0  0.66950  0.85514  0.08582  1.0000
  C   C3        1.0  0.73870  0.81095  0.11658  1.0000
  H   H2        1.0  0.40216  0.01889  0.13177  1.0000
  C   C4        1.0  0.41060  0.09459  0.03893  1.0000
  C   C5        1.0  0.44631  0.07226  0.01389  1.0000
  C   C6        1.0  0.22387  0.18415  0.15216  1.0000
  C   C7        1.0  0.29285  0.14848  0.11925  1.0000
  H   H3        1.0  0.26144  0.20960  0.08941  1.0000
  O   O2        1.0  0.33033  0.14053  0.08928  1.0000
  H   H4        1.0  0.45800  0.08692  0.98043  1.0000
  C   C8        1.0  0.25964  0.18343  0.11724  1.0000
  C   C9        1.0  0.22354  0.81178  0.84880  1.0000
  C   C10       1.0  0.29025  0.84787  0.88670  1.0000
  H   H5        1.0  0.25890  0.78466  0.91227  1.0000
  O   O3        1.0  0.32644  0.85587  0.91872  1.0000
  C   C11       1.0  0.25778  0.81198  0.88554  1.0000
  C   C12       1.0  0.77553  0.18997  0.84636  1.0000
  C   C13       1.0  0.70757  0.15495  0.88229  1.0000
  H   H6        1.0  0.74032  0.21664  0.90997  1.0000
  O   O4        1.0  0.67121  0.14736  0.91388  1.0000
  C   C14       1.0  0.74076  0.19014  0.88231  1.0000
  C   C15       1.0  0.15431  0.77368  0.80920  1.0000
  C   C16       1.0  0.11910  0.70452  0.84331  1.0000
  H   H7        1.0  0.09298  0.73608  0.78032  1.0000
  O   O5        1.0  0.08834  0.66710  0.85025  1.0000
  C   C17       1.0  0.11945  0.73765  0.80792  1.0000
  H   H8        1.0  0.13490  0.40177  0.02141  1.0000
  C   C18       1.0  0.04042  0.40933  0.09449  1.0000
  C   C19       1.0  0.01617  0.44539  0.07174  1.0000
  C   C20       1.0  0.15354  0.22322  0.18789  1.0000
  C   C21       1.0  0.12090  0.29214  0.15110  1.0000
  H   H9        1.0  0.09372  0.26389  0.21514  1.0000
  O   O6        1.0  0.09205  0.33058  0.14324  1.0000
  H   H10       1.0  0.98229  0.45660  0.08532  1.0000
  C   C22       1.0  0.11996  0.26028  0.18765  1.0000
  C   C23       1.0  0.84988  0.22300  0.81274  1.0000
  C   C24       1.0  0.88817  0.28830  0.85120  1.0000
  H   H11       1.0  0.91754  0.25352  0.79140  1.0000
  O   O7        1.0  0.92130  0.32276  0.86142  1.0000
  C   C25       1.0  0.88835  0.25492  0.81589  1.0000
  H   H12       1.0  0.87738  0.60537  0.01536  1.0000
  C   C26       1.0  0.96288  0.58693  0.09754  1.0000
  C   C27       1.0  0.98762  0.55113  0.07465  1.0000
  C   C28       1.0  0.84392  0.77228  0.18978  1.0000
  C   C29       1.0  0.87992  0.70494  0.15308  1.0000
  H   H13       1.0  0.90616  0.73524  0.21675  1.0000
  O   O8        1.0  0.91158  0.66879  0.14490  1.0000
  H   H14       1.0  0.01890  0.53661  0.09122  1.0000
  C   C30       1.0  0.87919  0.73688  0.18970  1.0000
  C   C31       1.0  0.89678  0.03987  0.58121  1.0000
  C   C32       1.0  0.92235  0.01459  0.54765  1.0000
  C   C33       1.0  0.80995  0.15463  0.77313  1.0000
  C   C34       1.0  0.84178  0.12206  0.70165  1.0000
  H   H15       1.0  0.77941  0.09537  0.73331  1.0000
  O   O9        1.0  0.84764  0.09245  0.66309  1.0000
  H   H16       1.0  0.90759  0.98242  0.53268  1.0000
  C   C35       1.0  0.80739  0.12128  0.73560  1.0000
  C   C36       1.0  0.18687  0.15029  0.22474  1.0000
  C   C37       1.0  0.15009  0.11644  0.29304  1.0000
  H   H17       1.0  0.20962  0.08534  0.26026  1.0000
  O   O10       1.0  0.14079  0.08530  0.32940  1.0000
  C   C38       1.0  0.18494  0.11441  0.25967  1.0000
  H   H18       1.0  0.97482  0.12854  0.60252  1.0000
  C   C39       1.0  0.90591  0.96444  0.40814  1.0000
  C   C40       1.0  0.93055  0.98923  0.44269  1.0000
  C   C41       1.0  0.81207  0.84738  0.22331  1.0000
  C   C42       1.0  0.84713  0.88151  0.29279  1.0000
  H   H19       1.0  0.79360  0.91633  0.25353  1.0000
  O   O11       1.0  0.85723  0.91377  0.32828  1.0000
  H   H20       1.0  0.92026  0.02516  0.45125  1.0000
  C   C43       1.0  0.81510  0.88495  0.25658  1.0000
  H   H21       1.0  0.01981  0.87655  0.60913  1.0000
  C   C44       1.0  0.09699  0.96537  0.58683  1.0000
  C   C45       1.0  0.07198  0.98866  0.55145  1.0000
  C   C46       1.0  0.18885  0.84780  0.77579  1.0000
  C   C47       1.0  0.15420  0.88364  0.70703  1.0000
  H   H22       1.0  0.21235  0.91417  0.74360  1.0000
  O   O12       1.0  0.14518  0.91623  0.67161  1.0000
  H   H23       1.0  0.08656  0.02048  0.53586  1.0000
  C   C48       1.0  0.18788  0.88485  0.74194  1.0000
  H   H24       1.0  0.96872  0.86250  0.40933  1.0000
  C   C49       1.0  0.90803  0.59010  0.03255  1.0000
  C   C50       1.0  0.93276  0.55436  0.00973  1.0000
  C   C51       1.0  0.81032  0.77397  0.15209  1.0000
  C   C52       1.0  0.84709  0.70654  0.11617  1.0000
  H   H25       1.0  0.78809  0.74100  0.08523  1.0000
  O   O13       1.0  0.85721  0.67136  0.08359  1.0000
  H   H26       1.0  0.92120  0.54227  0.97506  1.0000
  C   C53       1.0  0.81237  0.74018  0.11485  1.0000
  H   H27       1.0  0.02542  0.39314  0.12588  1.0000
  C   C54       1.0  0.10175  0.41406  0.03601  1.0000
  C   C55       1.0  0.07771  0.45055  0.01360  1.0000
  C   C56       1.0  0.18786  0.22074  0.15111  1.0000
  C   C57       1.0  0.15343  0.28869  0.11423  1.0000
  H   H28       1.0  0.21176  0.25246  0.08455  1.0000
  O   O14       1.0  0.14537  0.32434  0.08173  1.0000
  H   H29       1.0  0.09244  0.46618  0.98186  1.0000
  C   C58       1.0  0.18697  0.25396  0.11353  1.0000
  H   H30       1.0  0.97517  0.59982  0.13169  1.0000
  C   C59       1.0  0.81306  0.22517  0.84695  1.0000
  C   C60       1.0  0.85106  0.29166  0.88342  1.0000
  H   H31       1.0  0.78600  0.26419  0.90816  1.0000
  O   O15       1.0  0.85945  0.32868  0.91433  1.0000
  C   C61       1.0  0.81380  0.26089  0.88227  1.0000
  C   C62       1.0  0.18785  0.77472  0.84695  1.0000
  C   C63       1.0  0.15191  0.70577  0.88029  1.0000
  H   H32       1.0  0.21013  0.74016  0.91272  1.0000
  O   O16       1.0  0.14283  0.66944  0.91156  1.0000
  C   C64       1.0  0.18602  0.73995  0.88299  1.0000
  C   C65       1.0  0.77473  0.15421  0.81062  1.0000
  C   C66       1.0  0.70745  0.11930  0.84793  1.0000
  H   H33       1.0  0.73868  0.08996  0.78621  1.0000
  O   O17       1.0  0.67115  0.08811  0.85706  1.0000
  C   C67       1.0  0.73994  0.11821  0.81211  1.0000
  H   H34       1.0  0.39488  0.12659  0.02481  1.0000
  C   C68       1.0  0.41454  0.03430  0.09886  1.0000
  C   C69       1.0  0.45026  0.01199  0.07373  1.0000
  C   C70       1.0  0.22346  0.14927  0.18860  1.0000
  C   C71       1.0  0.29225  0.11398  0.15459  1.0000
  H   H35       1.0  0.25958  0.08669  0.21642  1.0000
  O   O18       1.0  0.32927  0.08309  0.14754  1.0000
  H   H36       1.0  0.46509  0.97936  0.08720  1.0000
  C   C72       1.0  0.25862  0.11369  0.18935  1.0000
  C   C73       1.0  0.22384  0.84808  0.81374  1.0000
  C   C74       1.0  0.29040  0.88339  0.85239  1.0000
  H   H37       1.0  0.26003  0.91241  0.79017  1.0000
  O   O19       1.0  0.32660  0.91459  0.86176  1.0000
  C   C75       1.0  0.25833  0.88431  0.81605  1.0000
  C   C76       1.0  0.77671  0.84831  0.18575  1.0000
  C   C77       1.0  0.70951  0.88433  0.14923  1.0000
  H   H38       1.0  0.74344  0.91406  0.20950  1.0000
  O   O20       1.0  0.67392  0.91641  0.14041  1.0000
  C   C78       1.0  0.74325  0.88543  0.18403  1.0000
  C   C79       1.0  0.03485  0.90779  0.59275  1.0000
  C   C80       1.0  0.00967  0.93143  0.55784  1.0000
  C   C81       1.0  0.15513  0.81041  0.77296  1.0000
  C   C82       1.0  0.12146  0.84680  0.70406  1.0000
  H   H39       1.0  0.09561  0.78227  0.73198  1.0000
  O   O21       1.0  0.09073  0.85517  0.66695  1.0000
  H   H40       1.0  0.97506  0.91867  0.54769  1.0000
  C   C83       1.0  0.12151  0.81010  0.73570  1.0000
  C   C84       1.0  0.15269  0.18725  0.22489  1.0000
  C   C85       1.0  0.11679  0.15271  0.29351  1.0000
  H   H41       1.0  0.09050  0.21514  0.26125  1.0000
  O   O22       1.0  0.08572  0.14540  0.33050  1.0000
  C   C86       1.0  0.11727  0.18801  0.26028  1.0000
  H   H42       1.0  0.13072  0.97943  0.59840  1.0000
  C   C87       1.0  0.95769  0.89803  0.41880  1.0000
  C   C88       1.0  0.98254  0.92308  0.45335  1.0000
  C   C89       1.0  0.84334  0.80814  0.22703  1.0000
  C   C90       1.0  0.87602  0.84190  0.29787  1.0000
  H   H43       1.0  0.89794  0.77528  0.27104  1.0000
  O   O23       1.0  0.90480  0.84788  0.33705  1.0000
  H   H44       1.0  0.01279  0.90679  0.47014  1.0000
  C   C91       1.0  0.87488  0.80526  0.26599  1.0000
  H   H45       1.0  0.86252  0.02683  0.59222  1.0000
  C   C92       1.0  0.95972  0.09677  0.58699  1.0000
  C   C93       1.0  0.98532  0.07134  0.55378  1.0000
  C   C94       1.0  0.84745  0.18831  0.77448  1.0000
  C   C95       1.0  0.87843  0.15504  0.70293  1.0000
  H   H46       1.0  0.91083  0.21320  0.73789  1.0000
  O   O24       1.0  0.90818  0.14726  0.66507  1.0000
  H   H47       1.0  0.02016  0.08344  0.54380  1.0000
  C   C96       1.0  0.88198  0.18817  0.73828  1.0000
  H   H48       1.0  0.87650  0.98119  0.39019  1.0000
  B   B1        1.0  0.65003  0.89834  0.10066  1.0000
  B   B2        1.0  0.35209  0.09956  0.10667  1.0000
  C   C97       1.0  0.39372  0.07596  0.08182  1.0000
  C   C98       1.0  0.46674  0.03054  0.03085  1.0000
  B   B3        1.0  0.34866  0.89732  0.90276  1.0000
  B   B4        1.0  0.64895  0.10588  0.89779  1.0000
  B   B5        1.0  0.10301  0.64644  0.89301  1.0000
  B   B6        1.0  0.10727  0.34996  0.10021  1.0000
  C   C99       1.0  0.08344  0.39241  0.07674  1.0000
  C   C100      1.0  0.03429  0.46652  0.03079  1.0000
  B   B7        1.0  0.90294  0.34753  0.90033  1.0000
  B   B8        1.0  0.89727  0.64846  0.10165  1.0000
  C   C101      1.0  0.92270  0.60741  0.07702  1.0000
  C   C102      1.0  0.97297  0.53420  0.03033  1.0000
  B   B9        1.0  0.88971  0.10731  0.64185  1.0000
  C   C103      1.0  0.91494  0.08147  0.60158  1.0000
  C   C104      1.0  0.96697  0.03001  0.53333  1.0000
  B   B10       1.0  0.10074  0.10334  0.35202  1.0000
  B   B11       1.0  0.89358  0.89291  0.35475  1.0000
  C   C105      1.0  0.91892  0.91815  0.39548  1.0000
  C   C106      1.0  0.96903  0.96891  0.46624  1.0000
  B   B12       1.0  0.10527  0.89865  0.64788  1.0000
  C   C107      1.0  0.07917  0.92414  0.60792  1.0000
  C   C108      1.0  0.02818  0.97177  0.53591  1.0000
  C   C109      1.0  0.50077  0.00199  0.99956  1.0000
  C   C110      1.0  0.00336  0.49988  0.00110  1.0000
  C   C111      1.0  0.99809  0.99990  0.50047  1.0000
  C  Sn1       1.0  0.57430  0.96669  0.09868  1.0000
  C   C112      1.0  0.59682  0.92503  0.08517  1.0000
  C  Sn2       1.0  0.59234  0.90794  0.03900  1.0000
  C  Sn3       1.0  0.56481  0.93301  0.00563  1.0000
  C   C113      1.0  0.54232  0.97464  0.01914  1.0000
  C  Sn4       1.0  0.54677  0.99176  0.06531  1.0000
  O  Te1       1.0  0.57926  0.98313  0.14502  1.0000
  O  Te2       1.0  0.61517  0.86620  0.02633  1.0000
  O  Te3       1.0  0.56258  0.91905  0.95926  1.0000
  O  Te4       1.0  0.52218  0.03347  0.07798  1.0000
  Mg  Mg1       1.0  0.60048  0.86058  0.95897  1.0000
  Mg  Mg2       1.0  0.53958  0.04166  0.14532  1.0000
  C  Sn5       1.0  0.02261  0.58606  0.90975  1.0000
  C   C114      1.0  0.06356  0.61050  0.92197  1.0000
  C  Sn6       1.0  0.09275  0.59378  0.95797  1.0000
  C  Sn7       1.0  0.08077  0.55174  0.98225  1.0000
  C   C115      1.0  0.03985  0.52732  0.97002  1.0000
  C  Sn8       1.0  0.01063  0.54402  0.93403  1.0000
  O  Te5       1.0  0.99395  0.60342  0.87364  1.0000
  O  Te6       1.0  0.13350  0.61883  0.96957  1.0000
  O  Te7       1.0  0.10675  0.53187  0.01838  1.0000
  O  Te8       1.0  0.96991  0.51899  0.92242  1.0000
  Mg  Mg3       1.0  0.15853  0.57847  0.02130  1.0000
  Mg  Mg4       1.0  0.94215  0.55678  0.87068  1.0000
  C  Sn9       1.0  0.54958  0.09035  0.97744  1.0000
  C   C116      1.0  0.52840  0.04755  0.96503  1.0000
  C  Sn10      1.0  0.54919  0.01801  0.93150  1.0000
  C  Sn11      1.0  0.59205  0.03152  0.90995  1.0000
  C   C117      1.0  0.61321  0.07430  0.92236  1.0000
  C  Sn12      1.0  0.59244  0.10386  0.95588  1.0000
  O  Te9       1.0  0.52545  0.11680  0.01104  1.0000
  O  Te10      1.0  0.52914  0.97539  0.91966  1.0000
  O  Te11      1.0  0.61345  0.00250  0.87632  1.0000
  O  Te12      1.0  0.61425  0.14645  0.96773  1.0000
  Mg  Mg5       1.0  0.57197  0.94793  0.87196  1.0000
  Mg  Mg6       1.0  0.56876  0.17140  0.01544  1.0000
  C  Sn13      1.0  0.08203  0.02102  0.40788  1.0000
  C   C118      1.0  0.07153  0.06504  0.38842  1.0000
  C  Sn14      1.0  0.03974  0.09514  0.41080  1.0000
  C  Sn15      1.0  0.01800  0.08096  0.45354  1.0000
  C   C119      1.0  0.02850  0.03697  0.47299  1.0000
  C  Sn16      1.0  0.06028  0.00684  0.45063  1.0000
  O  Te13      1.0  0.11571  0.99150  0.38491  1.0000
  O  Te14      1.0  0.02980  0.13897  0.39065  1.0000
  O  Te15      1.0  0.98609  0.11052  0.47651  1.0000
  O  Te16      1.0  0.07202  0.96304  0.47075  1.0000
  Mg  Mg7       1.0  0.98399  0.16677  0.43523  1.0000
  Mg  Mg8       1.0  0.11784  0.93522  0.42622  1.0000
  C  Sn17      1.0  0.45021  0.91427  0.97982  1.0000
  C   C120      1.0  0.47079  0.95700  0.96653  1.0000
  C  Sn18      1.0  0.44860  0.98624  0.93368  1.0000
  C  Sn19      1.0  0.40491  0.97249  0.91373  1.0000
  C   C121      1.0  0.38435  0.92979  0.92703  1.0000
  C  Sn20      1.0  0.40652  0.90052  0.95986  1.0000
  O  Te17      1.0  0.47029  0.88307  0.01272  1.0000
  O  Te18      1.0  0.46809  0.02878  0.92094  1.0000
  O  Te19      1.0  0.38211  0.00120  0.88081  1.0000
  O  Te20      1.0  0.38527  0.85800  0.97262  1.0000
  Mg  Mg9       1.0  0.42330  0.05580  0.87473  1.0000
  Mg  Mg10      1.0  0.42729  0.82845  0.01884  1.0000
  C  Sn21      1.0  0.90337  0.42839  0.96351  1.0000
  C   C122      1.0  0.91851  0.40235  0.92440  1.0000
  C  Sn22      1.0  0.96549  0.40392  0.91040  1.0000
  C  Sn23      1.0  0.99802  0.43207  0.93604  1.0000
  C   C123      1.0  0.98288  0.45808  0.97512  1.0000
  C  Sn24      1.0  0.93591  0.45654  0.98914  1.0000
  O  Te21      1.0  0.85624  0.42630  0.97687  1.0000
  O  Te22      1.0  0.97979  0.37759  0.87119  1.0000
  O  Te23      1.0  0.04518  0.43415  0.92264  1.0000
  O  Te24      1.0  0.91888  0.48031  0.02834  1.0000
  Mg  Mg11      1.0  0.04769  0.39198  0.86681  1.0000
  Mg  Mg12      1.0  0.85100  0.46593  0.03276  1.0000
