data_image0
_chemical_formula_structural       C6H2BO2C6H2BO2C6H2BO2C6H2BO2C6H2BO2C6H2BO2C6H2BO2C6H2BO2C6H2BO2C6H2BO2C6H2BO2C6H2BO2C6H2BO2C6H2BO2C6H2BO2C6H2BO2C6H2BO2C6H2BO2C6H2BO2C6H2BO2C6H2BO2C6H2BO2C6H2BO2C6H2BO2C6H2BO2C6H2BO2C6H2BO2C6H2BO2C6H2BO2C6H2BO2C6H2BO2C6H2BO2C6H2BO2C6H2BO2C6H2BO2C6H2BO2C6H2BO2C6H2BO2C6H2BO2C6H2BO2C6H2BO2C6H2BO2C6H2BO2C6H2BO2C6H2BO2C6H2BO2C6H2BO2C6H2BO2Si12SnCSn2CSnTe4Mg2SnCSn2CSnTe4Mg2SnCSn2CSnTe4Mg2SnCSn2CSnTe4Mg2SnCSn2CSnTe4Mg2SnCSn2CSnTe4Mg2SnCSn2CSnTe4Mg2SnCSn2CSnTe4Mg2SnCSn2CSnTe4Mg2SnCSn2CSnTe4Mg2SnCSn2CSnTe4Mg2SnCSn2CSnTe4Mg2SnCSn2CSnTe4Mg2SnCSn2CSnTe4Mg2SnCSn2CSnTe4Mg2SnCSn2CSnTe4Mg2SnCSn2CSnTe4Mg2SnCSn2CSnTe4Mg2SnCSn2CSnTe4Mg2SnCSn2CSnTe4Mg2SnCSn2CSnTe4Mg2SnCSn2CSnTe4Mg2SnCSn2CSnTe4Mg2SnCSn2CSnTe4Mg2SnCSn2CSnTe4Mg2SnCSn2CSnTe4Mg2SnCSn2CSnTe4Mg2SnCSn2CSnTe4Mg2SnCSn2CSnTe4Mg2SnCSn2CSnTe4Mg2SnCSn2CSnTe4Mg2SnCSn2CSnTe4Mg2SnCSn2CSnTe4Mg2SnCSn2CSnTe4Mg2SnCSn2CSnTe4Mg2SnCSn2CSnTe4Mg2SnCSn2CSnTe4Mg2SnCSn2CSnTe4Mg2SnCSn2CSnTe4Mg2SnCSn2CSnTe4Mg2SnCSn2CSnTe4Mg2SnCSn2CSnTe4Mg2SnCSn2CSnTe4Mg2SnCSn2CSnTe4Mg2SnCSn2CSnTe4Mg2SnCSn2CSnTe4Mg2SnCSn2CSnTe4Mg2SnCSn2CSnTe4Mg2
_chemical_formula_sum              "C384 H96 B48 O96 Si12 Sn192 Te192 Mg96"
_cell_length_a       44.5355
_cell_length_b       44.4898
_cell_length_c       44.4579
_cell_angle_alpha    90.2953
_cell_angle_beta     89.6665
_cell_angle_gamma    90.0121

_symmetry_space_group_name_H-M    'P1'
_space_group_IT_number       1

loop_
  _space_group_symop_operation_xyz
  'x, y, z'

loop_
  _atom_site_type_symbol
  _atom_site_label
  _atom_site_symmetry_multiplicity
  _atom_site_fract_x
  _atom_site_fract_y
  _atom_site_fract_z
  _atom_site_occupancy
  C   C1        1.0  0.22722  0.21690  0.18336  1.0000
  C   C2        1.0  0.20191  0.23446  0.19279  1.0000
  C   C3        1.0  0.23544  0.25093  0.14227  1.0000
  C   C4        1.0  0.21087  0.26828  0.15172  1.0000
  C   C5        1.0  0.19404  0.26075  0.17656  1.0000
  C   C6        1.0  0.24394  0.22549  0.15743  1.0000
  H   H1        1.0  0.17545  0.27501  0.18338  1.0000
  H   H2        1.0  0.26308  0.21263  0.14939  1.0000
  B   B1        1.0  0.29065  0.10884  0.22928  1.0000
  O   O1        1.0  0.24826  0.26381  0.11689  1.0000
  O   O2        1.0  0.13031  0.20313  0.29230  1.0000
  C   C7        1.0  0.72464  0.71617  0.68382  1.0000
  C   C8        1.0  0.70021  0.73472  0.69364  1.0000
  C   C9        1.0  0.73305  0.74930  0.64218  1.0000
  C   C10       1.0  0.70906  0.76738  0.65172  1.0000
  C   C11       1.0  0.69258  0.76081  0.67703  1.0000
  C   C12       1.0  0.74114  0.72387  0.65750  1.0000
  H   H3        1.0  0.67418  0.77541  0.68363  1.0000
  H   H4        1.0  0.75974  0.71036  0.64929  1.0000
  B   B2        1.0  0.78716  0.60807  0.72996  1.0000
  O   O3        1.0  0.74560  0.76131  0.61634  1.0000
  O   O4        1.0  0.62752  0.70451  0.79246  1.0000
  C   C13       1.0  0.27373  0.78007  0.68285  1.0000
  C   C14       1.0  0.30038  0.76404  0.69083  1.0000
  C   C15       1.0  0.26703  0.74682  0.64068  1.0000
  C   C16       1.0  0.29350  0.73161  0.64801  1.0000
  C   C17       1.0  0.31029  0.73956  0.67263  1.0000
  C   C18       1.0  0.25686  0.77084  0.65737  1.0000
  H   H5        1.0  0.33065  0.72723  0.67755  1.0000
  H   H6        1.0  0.23637  0.78219  0.65089  1.0000
  B   B3        1.0  0.20866  0.88745  0.72982  1.0000
  O   O5        1.0  0.25452  0.73378  0.61532  1.0000
  O   O6        1.0  0.36991  0.79671  0.79087  1.0000
  C   C19       1.0  0.77334  0.28164  0.18338  1.0000
  C   C20       1.0  0.79962  0.26512  0.19141  1.0000
  C   C21       1.0  0.76583  0.24797  0.14168  1.0000
  C   C22       1.0  0.79195  0.23224  0.14914  1.0000
  C   C23       1.0  0.80897  0.24018  0.17357  1.0000
  C   C24       1.0  0.75623  0.27248  0.15802  1.0000
  H   H7        1.0  0.82903  0.22744  0.17865  1.0000
  H   H8        1.0  0.73598  0.28417  0.15135  1.0000
  B   B4        1.0  0.71036  0.39050  0.22980  1.0000
  O   O7        1.0  0.75306  0.23491  0.11647  1.0000
  O   O8        1.0  0.86846  0.29393  0.29280  1.0000
  C   C25       1.0  0.77279  0.71845  0.31669  1.0000
  C   C26       1.0  0.79804  0.73626  0.30781  1.0000
  C   C27       1.0  0.76320  0.75261  0.35765  1.0000
  C   C28       1.0  0.78778  0.77013  0.34876  1.0000
  C   C29       1.0  0.80523  0.76273  0.32428  1.0000
  C   C30       1.0  0.75528  0.72706  0.34215  1.0000
  H   H9        1.0  0.82400  0.77701  0.31822  1.0000
  H   H10       1.0  0.73610  0.71405  0.34969  1.0000
  B   B5        1.0  0.71140  0.60936  0.26975  1.0000
  O   O9        1.0  0.75017  0.76513  0.38320  1.0000
  O   O10       1.0  0.87277  0.70462  0.21060  1.0000
  C   C31       1.0  0.27275  0.21886  0.81621  1.0000
  C   C32       1.0  0.29789  0.23667  0.80699  1.0000
  C   C33       1.0  0.26526  0.25174  0.85861  1.0000
  C   C34       1.0  0.28986  0.26916  0.84957  1.0000
  C   C35       1.0  0.30628  0.26229  0.82424  1.0000
  C   C36       1.0  0.25634  0.22686  0.84259  1.0000
  H   H11       1.0  0.32528  0.27627  0.81818  1.0000
  H   H12       1.0  0.23724  0.21386  0.85036  1.0000
  B   B6        1.0  0.21036  0.10985  0.77008  1.0000
  O   O11       1.0  0.25306  0.26374  0.88478  1.0000
  O   O12       1.0  0.36978  0.20605  0.70744  1.0000
  C   C37       1.0  0.72522  0.28332  0.81734  1.0000
  C   C38       1.0  0.69984  0.26579  0.80835  1.0000
  C   C39       1.0  0.73281  0.25028  0.85914  1.0000
  C   C40       1.0  0.70805  0.23303  0.85027  1.0000
  C   C41       1.0  0.69145  0.24012  0.82536  1.0000
  C   C42       1.0  0.74177  0.27513  0.84329  1.0000
  H   H13       1.0  0.67266  0.22596  0.81909  1.0000
  H   H14       1.0  0.76129  0.28768  0.85063  1.0000
  B   B7        1.0  0.78917  0.39106  0.77091  1.0000
  O   O13       1.0  0.74545  0.23782  0.88461  1.0000
  O   O14       1.0  0.63185  0.29376  0.70616  1.0000
  C   C43       1.0  0.22608  0.78040  0.31601  1.0000
  C   C44       1.0  0.20031  0.76342  0.30709  1.0000
  C   C45       1.0  0.23294  0.74725  0.35786  1.0000
  C   C46       1.0  0.20744  0.73088  0.34948  1.0000
  C   C47       1.0  0.19106  0.73824  0.32446  1.0000
  C   C48       1.0  0.24258  0.77172  0.34181  1.0000
  H   H15       1.0  0.17160  0.72485  0.31854  1.0000
  H   H16       1.0  0.26258  0.78358  0.34898  1.0000
  B   B8        1.0  0.29130  0.88806  0.27125  1.0000
  O   O15       1.0  0.24541  0.73466  0.38330  1.0000
  O   O16       1.0  0.13201  0.79398  0.20588  1.0000
  C   C49       1.0  0.18410  0.22532  0.21892  1.0000
  C   C50       1.0  0.19307  0.19988  0.23623  1.0000
  C   C51       1.0  0.14156  0.23215  0.25178  1.0000
  C   C52       1.0  0.15058  0.20747  0.26895  1.0000
  C   C53       1.0  0.17581  0.19115  0.26174  1.0000
  C   C54       1.0  0.15768  0.24143  0.22707  1.0000
  H   H17       1.0  0.18186  0.17197  0.27539  1.0000
  H   H18       1.0  0.14981  0.26048  0.21421  1.0000
  B   B9        1.0  0.23070  0.28946  0.11115  1.0000
  O   O17       1.0  0.11526  0.24393  0.26374  1.0000
  O   O18       1.0  0.29255  0.12861  0.20469  1.0000
  C   C55       1.0  0.68281  0.72645  0.72029  1.0000
  C   C56       1.0  0.69042  0.70002  0.73677  1.0000
  C   C57       1.0  0.64147  0.73512  0.75408  1.0000
  C   C58       1.0  0.64832  0.70871  0.76959  1.0000
  C   C59       1.0  0.67243  0.69110  0.76169  1.0000
  C   C60       1.0  0.65799  0.74432  0.72964  1.0000
  H   H19       1.0  0.67697  0.67078  0.77423  1.0000
  H   H20       1.0  0.65166  0.76468  0.71798  1.0000
  B   B10       1.0  0.72856  0.78718  0.61035  1.0000
  O   O19       1.0  0.61645  0.74848  0.76701  1.0000
  O   O20       1.0  0.78825  0.62702  0.70474  1.0000
  C   C61       1.0  0.68285  0.27417  0.78163  1.0000
  C   C62       1.0  0.69212  0.29940  0.76403  1.0000
  C   C63       1.0  0.64201  0.26573  0.74753  1.0000
  C   C64       1.0  0.65121  0.29028  0.73019  1.0000
  C   C65       1.0  0.67565  0.30739  0.73797  1.0000
  C   C66       1.0  0.65712  0.25735  0.77300  1.0000
  H   H21       1.0  0.68171  0.32661  0.72434  1.0000
  H   H22       1.0  0.64910  0.23840  0.78601  1.0000
  B   B11       1.0  0.72781  0.21235  0.89080  1.0000
  O   O21       1.0  0.61657  0.25308  0.73493  1.0000
  O   O22       1.0  0.79089  0.37122  0.79537  1.0000
  C   C67       1.0  0.18364  0.77212  0.28025  1.0000
  C   C68       1.0  0.19341  0.79727  0.26275  1.0000
  C   C69       1.0  0.14236  0.76489  0.24638  1.0000
  C   C70       1.0  0.15178  0.78961  0.22941  1.0000
  C   C71       1.0  0.17693  0.80582  0.23687  1.0000
  C   C72       1.0  0.15766  0.75576  0.27149  1.0000
  H   H23       1.0  0.18345  0.82482  0.22314  1.0000
  H   H24       1.0  0.14957  0.73653  0.28405  1.0000
  B   B12       1.0  0.22688  0.70997  0.39015  1.0000
  O   O23       1.0  0.11655  0.75294  0.23387  1.0000
  O   O24       1.0  0.29243  0.86812  0.29561  1.0000
  C   C73       1.0  0.31743  0.77303  0.71744  1.0000
  C   C74       1.0  0.30787  0.79843  0.73488  1.0000
  C   C75       1.0  0.35912  0.76650  0.75088  1.0000
  C   C76       1.0  0.35009  0.79180  0.76747  1.0000
  C   C77       1.0  0.32488  0.80783  0.76017  1.0000
  C   C78       1.0  0.34349  0.75681  0.72607  1.0000
  H   H25       1.0  0.31868  0.82721  0.77370  1.0000
  H   H26       1.0  0.35117  0.73717  0.71369  1.0000
  B   B13       1.0  0.27411  0.71025  0.60733  1.0000
  O   O25       1.0  0.38480  0.75457  0.76360  1.0000
  O   O26       1.0  0.20614  0.86665  0.70602  1.0000
  C   C79       1.0  0.81674  0.27375  0.21800  1.0000
  C   C80       1.0  0.80743  0.29895  0.23585  1.0000
  C   C81       1.0  0.85799  0.26573  0.25147  1.0000
  C   C82       1.0  0.84893  0.29039  0.26895  1.0000
  C   C83       1.0  0.82405  0.30708  0.26185  1.0000
  C   C84       1.0  0.84249  0.25696  0.22633  1.0000
  H   H27       1.0  0.81769  0.32586  0.27614  1.0000
  H   H28       1.0  0.85006  0.23753  0.21358  1.0000
  B   B14       1.0  0.77232  0.21104  0.10858  1.0000
  O   O27       1.0  0.88343  0.25304  0.26384  1.0000
  O   O28       1.0  0.70766  0.36970  0.20603  1.0000
  C   C85       1.0  0.81653  0.72711  0.28211  1.0000
  C   C86       1.0  0.80911  0.70056  0.26547  1.0000
  C   C87       1.0  0.85899  0.73505  0.24950  1.0000
  C   C88       1.0  0.85194  0.70884  0.23347  1.0000
  C   C89       1.0  0.82750  0.69147  0.24081  1.0000
  C   C90       1.0  0.84203  0.74443  0.27368  1.0000
  H   H29       1.0  0.82274  0.67138  0.22780  1.0000
  H   H30       1.0  0.84849  0.76459  0.28585  1.0000
  B   B15       1.0  0.76789  0.79048  0.38982  1.0000
  O   O29       1.0  0.88431  0.74827  0.23693  1.0000
  O   O30       1.0  0.70871  0.62971  0.29394  1.0000
  C   C91       1.0  0.31520  0.22821  0.78024  1.0000
  C   C92       1.0  0.30730  0.20178  0.76359  1.0000
  C   C93       1.0  0.35659  0.23664  0.74639  1.0000
  C   C94       1.0  0.34934  0.21030  0.73064  1.0000
  C   C95       1.0  0.32516  0.19281  0.73852  1.0000
  C   C96       1.0  0.34017  0.24590  0.77097  1.0000
  H   H31       1.0  0.32035  0.17261  0.72567  1.0000
  H   H32       1.0  0.34661  0.26626  0.78278  1.0000
  B   B16       1.0  0.27092  0.28901  0.89136  1.0000
  O   O31       1.0  0.38168  0.24983  0.73336  1.0000
  O   O32       1.0  0.20763  0.13042  0.79403  1.0000
  C   C97       1.0  0.21961  0.18262  0.22728  1.0000
  C   C98       1.0  0.23607  0.19056  0.20074  1.0000
  C   C99       1.0  0.25352  0.14152  0.23527  1.0000
  C   C100      1.0  0.26926  0.14885  0.20897  1.0000
  C   C101      1.0  0.26125  0.17300  0.19162  1.0000
  C   C102      1.0  0.22893  0.15767  0.24472  1.0000
  H   H33       1.0  0.27415  0.17812  0.17153  1.0000
  H   H34       1.0  0.21723  0.15111  0.26510  1.0000
  B   B17       1.0  0.10866  0.22587  0.28883  1.0000
  O   O33       1.0  0.26662  0.11665  0.24843  1.0000
  O   O34       1.0  0.20751  0.29249  0.13256  1.0000
  C   C103      1.0  0.71647  0.68209  0.72776  1.0000
  C   C104      1.0  0.73287  0.68963  0.70109  1.0000
  C   C105      1.0  0.75000  0.64073  0.73597  1.0000
  C   C106      1.0  0.76521  0.64739  0.70917  1.0000
  C   C107      1.0  0.75748  0.67149  0.69171  1.0000
  C   C108      1.0  0.72575  0.65735  0.74555  1.0000
  H   H35       1.0  0.77037  0.67628  0.67155  1.0000
  H   H36       1.0  0.71449  0.65153  0.76640  1.0000
  B   B18       1.0  0.60809  0.72930  0.79072  1.0000
  O   O35       1.0  0.76360  0.61633  0.74959  1.0000
  O   O36       1.0  0.70581  0.79112  0.63201  1.0000
  C   C109      1.0  0.78271  0.68288  0.27387  1.0000
  C   C110      1.0  0.76500  0.69156  0.29944  1.0000
  C   C111      1.0  0.74928  0.64140  0.26509  1.0000
  C   C112      1.0  0.73237  0.64956  0.29048  1.0000
  C   C113      1.0  0.73953  0.67416  0.30776  1.0000
  C   C114      1.0  0.77437  0.65726  0.25659  1.0000
  H   H37       1.0  0.72555  0.67986  0.32699  1.0000
  H   H38       1.0  0.78703  0.65005  0.23693  1.0000
  B   B19       1.0  0.89249  0.72925  0.21290  1.0000
  O   O37       1.0  0.73639  0.61642  0.25160  1.0000
  O   O38       1.0  0.79094  0.79409  0.36840  1.0000
  C   C115      1.0  0.28103  0.18410  0.77245  1.0000
  C   C116      1.0  0.26402  0.19250  0.79854  1.0000
  C   C117      1.0  0.24768  0.14235  0.76447  1.0000
  C   C118      1.0  0.23114  0.15048  0.79011  1.0000
  C   C119      1.0  0.23863  0.17513  0.80722  1.0000
  C   C120      1.0  0.27223  0.15863  0.75515  1.0000
  H   H39       1.0  0.22515  0.18083  0.82679  1.0000
  H   H40       1.0  0.28416  0.15195  0.73487  1.0000
  B   B20       1.0  0.38961  0.23057  0.70938  1.0000
  O   O39       1.0  0.23504  0.11693  0.75155  1.0000
  O   O40       1.0  0.29388  0.29255  0.86979  1.0000
  C   C121      1.0  0.71830  0.31704  0.77297  1.0000
  C   C122      1.0  0.73436  0.30937  0.79962  1.0000
  C   C123      1.0  0.75215  0.35833  0.76481  1.0000
  C   C124      1.0  0.76763  0.35102  0.79110  1.0000
  C   C125      1.0  0.75937  0.32705  0.80865  1.0000
  C   C126      1.0  0.72780  0.34192  0.75535  1.0000
  H   H41       1.0  0.77194  0.32224  0.82887  1.0000
  H   H42       1.0  0.71640  0.34821  0.73484  1.0000
  B   B21       1.0  0.61039  0.27077  0.70959  1.0000
  O   O41       1.0  0.76531  0.38332  0.75169  1.0000
  O   O42       1.0  0.70451  0.20914  0.86981  1.0000
  C   C127      1.0  0.21986  0.81449  0.27181  1.0000
  C   C128      1.0  0.23556  0.80651  0.29856  1.0000
  C   C129      1.0  0.25433  0.85538  0.26420  1.0000
  C   C130      1.0  0.26918  0.84800  0.29082  1.0000
  C   C131      1.0  0.26047  0.82403  0.30811  1.0000
  C   C132      1.0  0.22989  0.83930  0.25436  1.0000
  H   H43       1.0  0.27253  0.81915  0.32860  1.0000
  H   H44       1.0  0.21877  0.84574  0.23374  1.0000
  B   B22       1.0  0.11039  0.77114  0.20889  1.0000
  O   O43       1.0  0.26800  0.88027  0.25144  1.0000
  O   O44       1.0  0.20306  0.70756  0.36961  1.0000
  C   C133      1.0  0.28084  0.81490  0.72657  1.0000
  C   C134      1.0  0.26399  0.80597  0.70076  1.0000
  C   C135      1.0  0.24625  0.85540  0.73521  1.0000
  C   C136      1.0  0.22992  0.84695  0.70973  1.0000
  C   C137      1.0  0.23806  0.82257  0.69244  1.0000
  C   C138      1.0  0.27127  0.83993  0.74414  1.0000
  H   H45       1.0  0.22482  0.81661  0.67291  1.0000
  H   H46       1.0  0.28303  0.84718  0.76418  1.0000
  B   B23       1.0  0.39117  0.77343  0.78826  1.0000
  O   O45       1.0  0.23321  0.88053  0.74834  1.0000
  O   O46       1.0  0.29849  0.70880  0.62724  1.0000
  C   C139      1.0  0.78104  0.31634  0.22723  1.0000
  C   C140      1.0  0.76426  0.30788  0.20118  1.0000
  C   C141      1.0  0.74740  0.35781  0.23552  1.0000
  C   C142      1.0  0.73105  0.34962  0.20995  1.0000
  C   C143      1.0  0.73889  0.32518  0.19261  1.0000
  C   C144      1.0  0.77214  0.34184  0.24452  1.0000
  H   H47       1.0  0.72585  0.31979  0.17278  1.0000
  H   H48       1.0  0.78435  0.34898  0.26434  1.0000
  B   B24       1.0  0.88968  0.27071  0.28940  1.0000
  O   O47       1.0  0.73476  0.38332  0.24840  1.0000
  O   O48       1.0  0.79657  0.20910  0.12867  1.0000
  C   C145      1.0  0.46841  0.47561  0.43251  1.0000
  C   C146      1.0  0.48506  0.44932  0.44035  1.0000
  C   C147      1.0  0.50195  0.48368  0.39071  1.0000
  C   C148      1.0  0.51765  0.45742  0.39784  1.0000
  C   C149      1.0  0.50988  0.44018  0.42222  1.0000
  C   C150      1.0  0.47759  0.49312  0.40739  1.0000
  H   H49       1.0  0.52278  0.42016  0.42715  1.0000
  H   H50       1.0  0.46605  0.51364  0.40123  1.0000
  B   B25       1.0  0.35830  0.53677  0.47832  1.0000
  O   O49       1.0  0.51499  0.49683  0.36559  1.0000
  O   O50       1.0  0.45890  0.38195  0.54379  1.0000
  C   C151      1.0  0.96809  0.97420  0.93042  1.0000
  C   C152      1.0  0.98586  0.94937  0.94033  1.0000
  C   C153      1.0  0.00236  0.98147  0.88915  1.0000
  C   C154      1.0  0.01965  0.95703  0.89865  1.0000
  C   C155      1.0  0.01205  0.94089  0.92386  1.0000
  C   C156      1.0  0.97689  0.99035  0.90431  1.0000
  H   H51       1.0  0.02600  0.92216  0.93067  1.0000
  H   H52       1.0  0.96430  0.00949  0.89621  1.0000
  B   B26       1.0  0.85969  0.03913  0.97521  1.0000
  O   O51       1.0  0.01523  0.99384  0.86365  1.0000
  O   O52       1.0  0.95325  0.88024  0.04086  1.0000
  C   C157      1.0  0.03165  0.52232  0.93385  1.0000
  C   C158      1.0  0.01537  0.54891  0.94192  1.0000
  C   C159      1.0  0.99814  0.51444  0.89234  1.0000
  C   C160      1.0  0.98286  0.54102  0.89964  1.0000
  C   C161      1.0  0.99080  0.55834  0.92400  1.0000
  C   C162      1.0  0.02237  0.50482  0.90870  1.0000
  H   H53       1.0  0.97851  0.57885  0.92885  1.0000
  H   H54       1.0  0.03395  0.48436  0.90210  1.0000
  B   B27       1.0  0.14051  0.45950  0.97834  1.0000
  O   O53       1.0  0.98518  0.50146  0.86712  1.0000
  O   O54       1.0  0.04680  0.62114  0.04091  1.0000
  C   C163      1.0  0.53218  0.02101  0.43472  1.0000
  C   C164      1.0  0.51556  0.04736  0.44290  1.0000
  C   C165      1.0  0.49781  0.01199  0.39423  1.0000
  C   C166      1.0  0.48212  0.03826  0.40175  1.0000
  C   C167      1.0  0.49027  0.05602  0.42566  1.0000
  C   C168      1.0  0.52265  0.00304  0.41001  1.0000
  H   H55       1.0  0.47757  0.07625  0.43059  1.0000
  H   H56       1.0  0.53448  0.98278  0.40321  1.0000
  B   B28       1.0  0.64244  0.96029  0.47864  1.0000
  O   O55       1.0  0.48459  0.99860  0.36940  1.0000
  O   O56       1.0  0.54696  0.12086  0.54083  1.0000
  C   C169      1.0  0.96772  0.02393  0.56730  1.0000
  C   C170      1.0  0.98501  0.04931  0.55782  1.0000
  C   C171      1.0  0.00191  0.01649  0.60815  1.0000
  C   C172      1.0  0.01875  0.04139  0.59893  1.0000
  C   C173      1.0  0.01085  0.05803  0.57430  1.0000
  C   C174      1.0  0.97657  0.00750  0.59311  1.0000
  H   H57       1.0  0.02426  0.07741  0.56817  1.0000
  H   H58       1.0  0.96395  0.98827  0.60114  1.0000
  B   B29       1.0  0.85902  0.95993  0.52371  1.0000
  O   O57       1.0  0.01492  0.00424  0.63349  1.0000
  O   O58       1.0  0.95298  0.11960  0.45854  1.0000
  C   C175      1.0  0.46797  0.52496  0.06615  1.0000
  C   C176      1.0  0.48484  0.55104  0.05790  1.0000
  C   C177      1.0  0.50208  0.51629  0.10687  1.0000
  C   C178      1.0  0.51856  0.54184  0.09879  1.0000
  C   C179      1.0  0.51070  0.55923  0.07466  1.0000
  C   C180      1.0  0.47714  0.50740  0.09112  1.0000
  H   H59       1.0  0.52435  0.57854  0.06881  1.0000
  H   H60       1.0  0.46525  0.48722  0.09781  1.0000
  B   B30       1.0  0.35963  0.46177  0.02038  1.0000
  O   O59       1.0  0.51515  0.50306  0.13174  1.0000
  O   O60       1.0  0.45452  0.62256  0.95903  1.0000
  C   C181      1.0  0.53170  0.98002  0.06662  1.0000
  C   C182      1.0  0.51499  0.95384  0.05827  1.0000
  C   C183      1.0  0.49877  0.98740  0.10900  1.0000
  C   C184      1.0  0.48235  0.96184  0.10071  1.0000
  C   C185      1.0  0.48972  0.94502  0.07577  1.0000
  C   C186      1.0  0.52313  0.99690  0.09253  1.0000
  H   H61       1.0  0.47620  0.92560  0.06997  1.0000
  H   H62       1.0  0.53512  0.01698  0.09944  1.0000
  B   B31       1.0  0.63794  0.04497  0.01762  1.0000
  O   O61       1.0  0.48629  0.99991  0.13481  1.0000
  O   O62       1.0  0.54688  0.88180  0.95907  1.0000
  C   C187      1.0  0.03231  0.47531  0.56734  1.0000
  C   C188      1.0  0.01417  0.45055  0.55774  1.0000
  C   C189      1.0  0.99860  0.48388  0.60887  1.0000
  C   C190      1.0  0.98041  0.46015  0.59907  1.0000
  C   C191      1.0  0.98760  0.44327  0.57406  1.0000
  C   C192      1.0  0.02425  0.49184  0.59361  1.0000
  H   H63       1.0  0.97293  0.42504  0.56723  1.0000
  H   H64       1.0  0.03764  0.51045  0.60185  1.0000
  B   B32       1.0  0.14001  0.53928  0.52080  1.0000
  O   O63       1.0  0.98623  0.49671  0.63459  1.0000
  O   O64       1.0  0.04544  0.37907  0.45758  1.0000
  C   C193      1.0  0.47683  0.43227  0.46720  1.0000
  C   C194      1.0  0.45178  0.44153  0.48531  1.0000
  C   C195      1.0  0.48584  0.39164  0.50135  1.0000
  C   C196      1.0  0.46168  0.40101  0.51937  1.0000
  C   C197      1.0  0.44455  0.42552  0.51200  1.0000
  C   C198      1.0  0.49394  0.40675  0.47569  1.0000
  H   H65       1.0  0.42606  0.43211  0.52657  1.0000
  H   H66       1.0  0.51312  0.39905  0.46264  1.0000
  B   B33       1.0  0.53895  0.47773  0.35759  1.0000
  O   O65       1.0  0.49870  0.36629  0.51378  1.0000
  O   O66       1.0  0.37895  0.53946  0.45447  1.0000
  C   C199      1.0  0.97680  0.93266  0.96715  1.0000
  C   C200      1.0  0.95053  0.94147  0.98367  1.0000
  C   C201      1.0  0.98419  0.89197  0.00173  1.0000
  C   C202      1.0  0.95797  0.90006  0.01733  1.0000
  C   C203      1.0  0.94099  0.92435  0.00891  1.0000
  C   C204      1.0  0.99385  0.90752  0.97685  1.0000
  H   H67       1.0  0.92062  0.92977  0.02130  1.0000
  H   H68       1.0  0.01402  0.90025  0.96516  1.0000
  B   B34       1.0  0.04087  0.97621  0.85780  1.0000
  O   O67       1.0  0.99686  0.86697  0.01515  1.0000
  O   O68       1.0  0.87891  0.03948  0.94999  1.0000
  C   C205      1.0  0.52409  0.93606  0.03204  1.0000
  C   C206      1.0  0.54903  0.94551  0.01401  1.0000
  C   C207      1.0  0.51777  0.89312  0.99977  1.0000
  C   C208      1.0  0.54241  0.90217  0.98234  1.0000
  C   C209      1.0  0.55819  0.92788  0.98884  1.0000
  C   C210      1.0  0.50835  0.90930  0.02445  1.0000
  H   H69       1.0  0.57722  0.93408  0.97487  1.0000
  H   H70       1.0  0.48932  0.90133  0.03748  1.0000
  B   B35       1.0  0.46187  0.98114  0.14197  1.0000
  O   O69       1.0  0.50590  0.86692  0.98782  1.0000
  O   O70       1.0  0.61823  0.04701  0.04241  1.0000
  C   C211      1.0  0.02313  0.43286  0.53132  1.0000
  C   C212      1.0  0.04913  0.44136  0.51425  1.0000
  C   C213      1.0  0.01567  0.39098  0.49767  1.0000
  C   C214      1.0  0.04117  0.39925  0.48109  1.0000
  C   C215      1.0  0.05799  0.42400  0.48875  1.0000
  C   C216      1.0  0.00637  0.40705  0.52257  1.0000
  H   H71       1.0  0.07761  0.42970  0.47540  1.0000
  H   H72       1.0  0.98668  0.39976  0.53502  1.0000
  B   B36       1.0  0.95991  0.48006  0.64015  1.0000
  O   O71       1.0  0.00312  0.36539  0.48492  1.0000
  O   O72       1.0  0.12006  0.54101  0.54541  1.0000
  C   C217      1.0  0.02423  0.56648  0.96831  1.0000
  C   C218      1.0  0.05042  0.55827  0.98487  1.0000
  C   C219      1.0  0.01638  0.60818  0.00202  1.0000
  C   C220      1.0  0.04246  0.60066  0.01773  1.0000
  C   C221      1.0  0.05953  0.57609  0.00986  1.0000
  C   C222      1.0  0.00688  0.59172  0.97764  1.0000
  H   H73       1.0  0.07936  0.57075  0.02283  1.0000
  H   H74       1.0  0.98642  0.59814  0.96624  1.0000
  B   B37       1.0  0.96171  0.52094  0.85922  1.0000
  O   O73       1.0  0.00328  0.63333  0.01512  1.0000
  O   O74       1.0  0.11886  0.45598  0.95574  1.0000
  C   C223      1.0  0.52466  0.06545  0.46879  1.0000
  C   C224      1.0  0.55131  0.05793  0.48488  1.0000
  C   C225      1.0  0.51649  0.10720  0.50227  1.0000
  C   C226      1.0  0.54289  0.10025  0.51771  1.0000
  C   C227      1.0  0.56039  0.07603  0.50969  1.0000
  C   C228      1.0  0.50699  0.09047  0.47809  1.0000
  H   H75       1.0  0.58049  0.07117  0.52242  1.0000
  H   H76       1.0  0.48631  0.09648  0.46687  1.0000
  B   B38       1.0  0.46064  0.01774  0.36179  1.0000
  O   O75       1.0  0.50311  0.13216  0.51534  1.0000
  O   O76       1.0  0.62090  0.95630  0.45597  1.0000
  C   C229      1.0  0.97599  0.06631  0.53134  1.0000
  C   C230      1.0  0.94942  0.05809  0.51535  1.0000
  C   C231      1.0  0.98391  0.10705  0.49695  1.0000
  C   C232      1.0  0.95746  0.09952  0.48181  1.0000
  C   C233      1.0  0.94022  0.07532  0.49017  1.0000
  C   C234      1.0  0.99357  0.09107  0.52140  1.0000
  H   H77       1.0  0.92020  0.06986  0.47750  1.0000
  H   H78       1.0  0.01426  0.09751  0.53242  1.0000
  B   B39       1.0  0.04007  0.02235  0.63950  1.0000
  O   O77       1.0  0.99697  0.13183  0.48340  1.0000
  O   O78       1.0  0.88013  0.95748  0.54698  1.0000
  C   C235      1.0  0.47554  0.56908  0.03222  1.0000
  C   C236      1.0  0.45082  0.55953  0.01409  1.0000
  C   C237      1.0  0.48221  0.61212  0.00043  1.0000
  C   C238      1.0  0.45839  0.60248  0.98237  1.0000
  C   C239      1.0  0.44245  0.57679  0.98866  1.0000
  C   C240      1.0  0.49108  0.59608  0.02515  1.0000
  H   H79       1.0  0.42392  0.57036  0.97429  1.0000
  H   H80       1.0  0.50955  0.60423  0.03871  1.0000
  B   B40       1.0  0.53993  0.52139  0.13863  1.0000
  O   O79       1.0  0.49387  0.63866  0.98906  1.0000
  O   O80       1.0  0.37894  0.46058  0.04529  1.0000
  C   C241      1.0  0.43364  0.46730  0.47628  1.0000
  C   C242      1.0  0.44196  0.48421  0.45023  1.0000
  C   C243      1.0  0.39122  0.49991  0.48407  1.0000
  C   C244      1.0  0.39937  0.51641  0.45856  1.0000
  C   C245      1.0  0.42412  0.50912  0.44144  1.0000
  C   C246      1.0  0.40768  0.47551  0.49321  1.0000
  H   H81       1.0  0.42934  0.52225  0.42162  1.0000
  H   H82       1.0  0.40051  0.46297  0.51284  1.0000
  B   B41       1.0  0.48167  0.36039  0.53984  1.0000
  O   O81       1.0  0.36543  0.51219  0.49678  1.0000
  O   O82       1.0  0.54083  0.45315  0.37730  1.0000
  C   C247      1.0  0.93338  0.96784  0.97442  1.0000
  C   C248      1.0  0.94137  0.98333  0.94742  1.0000
  C   C249      1.0  0.89253  0.00236  0.98210  1.0000
  C   C250      1.0  0.89938  0.01657  0.95488  1.0000
  C   C251      1.0  0.92351  0.00784  0.93750  1.0000
  C   C252      1.0  0.90877  0.97820  0.99216  1.0000
  H   H83       1.0  0.92841  0.01967  0.91678  1.0000
  H   H84       1.0  0.90276  0.96779  0.01336  1.0000
  B   B42       1.0  0.97757  0.86007  0.03934  1.0000
  O   O83       1.0  0.86803  0.01641  0.99540  1.0000
  O   O84       1.0  0.04378  0.95315  0.87912  1.0000
  C   C253      1.0  0.93196  0.03193  0.52480  1.0000
  C   C254      1.0  0.94112  0.01493  0.55040  1.0000
  C   C255      1.0  0.89055  0.99804  0.51784  1.0000
  C   C256      1.0  0.89957  0.98142  0.54286  1.0000
  C   C257      1.0  0.92433  0.98928  0.55935  1.0000
  C   C258      1.0  0.90605  0.02303  0.50846  1.0000
  H   H85       1.0  0.93052  0.97582  0.57860  1.0000
  H   H86       1.0  0.89830  0.03525  0.48896  1.0000
  B   B43       1.0  0.97754  0.13943  0.45981  1.0000
  O   O85       1.0  0.86515  0.98500  0.50559  1.0000
  O   O86       1.0  0.04267  0.04550  0.61825  1.0000
  C   C259      1.0  0.43386  0.53255  0.02221  1.0000
  C   C260      1.0  0.44163  0.51624  0.04871  1.0000
  C   C261      1.0  0.39295  0.49827  0.01379  1.0000
  C   C262      1.0  0.39968  0.48330  0.04055  1.0000
  C   C263      1.0  0.42370  0.49150  0.05800  1.0000
  C   C264      1.0  0.40925  0.52278  0.00440  1.0000
  H   H87       1.0  0.42840  0.47911  0.07838  1.0000
  H   H88       1.0  0.40293  0.53426  0.98393  1.0000
  B   B44       1.0  0.47672  0.64463  0.96325  1.0000
  O   O87       1.0  0.36817  0.48485  0.00053  1.0000
  O   O88       1.0  0.54243  0.54542  0.11831  1.0000
  C   C265      1.0  0.56534  0.97291  0.02182  1.0000
  C   C266      1.0  0.55738  0.98947  0.04835  1.0000
  C   C267      1.0  0.60538  0.00778  0.01223  1.0000
  C   C268      1.0  0.59816  0.02352  0.03865  1.0000
  C   C269      1.0  0.57454  0.01510  0.05677  1.0000
  C   C270      1.0  0.58954  0.98282  0.00340  1.0000
  H   H89       1.0  0.56974  0.02782  0.07710  1.0000
  H   H90       1.0  0.59587  0.97108  0.98290  1.0000
  B   B45       1.0  0.52372  0.86056  0.96238  1.0000
  O   O89       1.0  0.63007  0.02100  0.99854  1.0000
  O   O90       1.0  0.45914  0.95752  0.12106  1.0000
  C   C271      1.0  0.06664  0.46773  0.52313  1.0000
  C   C272      1.0  0.05869  0.48408  0.54979  1.0000
  C   C273      1.0  0.10772  0.50180  0.51489  1.0000
  C   C274      1.0  0.10017  0.51747  0.54126  1.0000
  C   C275      1.0  0.07612  0.50928  0.55883  1.0000
  C   C276      1.0  0.09162  0.47719  0.50547  1.0000
  H   H91       1.0  0.07086  0.52221  0.57892  1.0000
  H   H92       1.0  0.09813  0.46568  0.48489  1.0000
  B   B46       1.0  0.02168  0.35841  0.46010  1.0000
  O   O91       1.0  0.13254  0.51519  0.50161  1.0000
  O   O92       1.0  0.95598  0.45746  0.61828  1.0000
  C   C277      1.0  0.06755  0.53153  0.97612  1.0000
  C   C278      1.0  0.05801  0.51353  0.95116  1.0000
  C   C279      1.0  0.10899  0.49779  0.98368  1.0000
  C   C280      1.0  0.09952  0.48012  0.95939  1.0000
  C   C281      1.0  0.07453  0.48735  0.94299  1.0000
  C   C282      1.0  0.09359  0.52316  0.99247  1.0000
  H   H93       1.0  0.06809  0.47309  0.92426  1.0000
  H   H94       1.0  0.10148  0.53616  0.01153  1.0000
  B   B47       1.0  0.02239  0.64112  0.03904  1.0000
  O   O93       1.0  0.13471  0.48532  0.99578  1.0000
  O   O94       1.0  0.96017  0.54563  0.87902  1.0000
  C   C283      1.0  0.56884  0.03152  0.47597  1.0000
  C   C284      1.0  0.55911  0.01297  0.45149  1.0000
  C   C285      1.0  0.61077  0.99848  0.48333  1.0000
  C   C286      1.0  0.60126  0.98028  0.45942  1.0000
  C   C287      1.0  0.57590  0.98695  0.44333  1.0000
  C   C288      1.0  0.59532  0.02387  0.49187  1.0000
  H   H95       1.0  0.56919  0.97235  0.42497  1.0000
  H   H96       1.0  0.60351  0.03735  0.51048  1.0000
  B   B48       1.0  0.52220  0.14038  0.53913  1.0000
  O   O95       1.0  0.63654  0.98638  0.49562  1.0000
  O   O96       1.0  0.45889  0.04236  0.38170  1.0000
  Si  Si1       1.0  0.37544  0.99906  0.25181  1.0000
  Si  Si2       1.0  0.12595  0.99975  0.74797  1.0000
  Si  Si3       1.0  0.62487  0.50064  0.24813  1.0000
  Si  Si4       1.0  0.87493  0.50062  0.75085  1.0000
  Si  Si5       1.0  0.25047  0.37508  0.00135  1.0000
  Si  Si6       1.0  0.75110  0.12573  0.99832  1.0000
  Si  Si7       1.0  0.24992  0.62405  0.49853  1.0000
  Si  Si8       1.0  0.75030  0.87373  0.50216  1.0000
  Si  Si9       1.0  0.99892  0.24871  0.37444  1.0000
  Si  Si10      1.0  0.00010  0.75104  0.12472  1.0000
  Si  Si11      1.0  0.50048  0.25038  0.62479  1.0000
  Si  Si12      1.0  0.49836  0.75250  0.87590  1.0000
  C  Sn1       1.0  0.31694  0.03925  0.26194  1.0000
  C   C289      1.0  0.34084  0.02920  0.24404  1.0000
  C  Sn2       1.0  0.35289  0.04764  0.22168  1.0000
  C  Sn3       1.0  0.34082  0.07675  0.21714  1.0000
  C   C290      1.0  0.31695  0.08680  0.23504  1.0000
  C  Sn4       1.0  0.30487  0.06837  0.25740  1.0000
  O  Te1       1.0  0.30524  0.02044  0.28416  1.0000
  O  Te2       1.0  0.37677  0.03708  0.20406  1.0000
  O  Te3       1.0  0.35255  0.09557  0.19490  1.0000
  O  Te4       1.0  0.28101  0.07891  0.27502  1.0000
  Mg  Mg1       1.0  0.38505  0.07108  0.17667  1.0000
  Mg  Mg2       1.0  0.27273  0.04495  0.30243  1.0000
  C  Sn5       1.0  0.83116  0.56503  0.70846  1.0000
  C   C291      1.0  0.80809  0.57511  0.72741  1.0000
  C  Sn6       1.0  0.80683  0.56592  0.75739  1.0000
  C  Sn7       1.0  0.82911  0.54627  0.76868  1.0000
  C   C292      1.0  0.85217  0.53621  0.74974  1.0000
  C  Sn8       1.0  0.85345  0.54538  0.71975  1.0000
  O  Te5       1.0  0.83198  0.57450  0.67857  1.0000
  O  Te6       1.0  0.78354  0.57629  0.77590  1.0000
  O  Te7       1.0  0.82828  0.53680  0.79860  1.0000
  O  Te8       1.0  0.87673  0.53503  0.70125  1.0000
  Mg  Mg3       1.0  0.79211  0.55706  0.81498  1.0000
  Mg  Mg4       1.0  0.86818  0.55425  0.66217  1.0000
  C  Sn9       1.0  0.18534  0.96085  0.75622  1.0000
  C   C293      1.0  0.16030  0.96900  0.73932  1.0000
  C  Sn10      1.0  0.14633  0.94801  0.72057  1.0000
  C  Sn11      1.0  0.15762  0.91825  0.71870  1.0000
  C   C294      1.0  0.18264  0.91011  0.73560  1.0000
  C  Sn12      1.0  0.19663  0.93109  0.75435  1.0000
  O  Te9       1.0  0.19895  0.98220  0.77482  1.0000
  O  Te10      1.0  0.12133  0.95669  0.70387  1.0000
  O  Te11      1.0  0.14399  0.89689  0.70008  1.0000
  O  Te12      1.0  0.22161  0.92242  0.77104  1.0000
  Mg  Mg5       1.0  0.11054  0.91951  0.68177  1.0000
  Mg  Mg6       1.0  0.23241  0.95957  0.79316  1.0000
  C  Sn13      1.0  0.68391  0.43822  0.26619  1.0000
  C   C295      1.0  0.68430  0.41677  0.24312  1.0000
  C  Sn14      1.0  0.66893  0.42197  0.21634  1.0000
  C  Sn15      1.0  0.65286  0.44919  0.21254  1.0000
  C   C296      1.0  0.65248  0.47063  0.23560  1.0000
  C  Sn16      1.0  0.66784  0.46544  0.26239  1.0000
  O  Te13      1.0  0.69943  0.43254  0.29277  1.0000
  O  Te14      1.0  0.66964  0.40019  0.19360  1.0000
  O  Te15      1.0  0.63733  0.45486  0.18593  1.0000
  O  Te16      1.0  0.66714  0.48721  0.28512  1.0000
  Mg  Mg7       1.0  0.64501  0.41831  0.16151  1.0000
  Mg  Mg8       1.0  0.69177  0.46912  0.31721  1.0000
  C  Sn17      1.0  0.68502  0.56308  0.23167  1.0000
  C   C297      1.0  0.68497  0.58406  0.25518  1.0000
  C  Sn18      1.0  0.66862  0.57857  0.28150  1.0000
  C  Sn19      1.0  0.65198  0.55154  0.28438  1.0000
  C   C298      1.0  0.65203  0.53058  0.26089  1.0000
  C  Sn20      1.0  0.66837  0.53606  0.23456  1.0000
  O  Te17      1.0  0.70152  0.56904  0.20557  1.0000
  O  Te18      1.0  0.66892  0.59988  0.30469  1.0000
  O  Te19      1.0  0.63547  0.54560  0.31051  1.0000
  O  Te20      1.0  0.66809  0.51476  0.21138  1.0000
  Mg  Mg9       1.0  0.64291  0.58152  0.33584  1.0000
  Mg  Mg10      1.0  0.69410  0.53309  0.18022  1.0000
  C  Sn21      1.0  0.18541  0.03885  0.73931  1.0000
  C   C299      1.0  0.16069  0.02975  0.75651  1.0000
  C  Sn22      1.0  0.14761  0.04940  0.77740  1.0000
  C  Sn23      1.0  0.15946  0.07876  0.78116  1.0000
  C   C300      1.0  0.18416  0.08785  0.76397  1.0000
  C  Sn24      1.0  0.19726  0.06821  0.74308  1.0000
  O  Te21      1.0  0.19813  0.01884  0.71857  1.0000
  O  Te22      1.0  0.12292  0.03979  0.79434  1.0000
  O  Te23      1.0  0.14672  0.09877  0.80194  1.0000
  O  Te24      1.0  0.22193  0.07781  0.72615  1.0000
  Mg  Mg11      1.0  0.11339  0.07525  0.81972  1.0000
  Mg  Mg12      1.0  0.23147  0.04237  0.70075  1.0000
  C  Sn25      1.0  0.85673  0.43601  0.77847  1.0000
  C   C301      1.0  0.85512  0.45860  0.75681  1.0000
  C  Sn26      1.0  0.82881  0.46286  0.74043  1.0000
  C  Sn27      1.0  0.80357  0.44416  0.74582  1.0000
  C   C302      1.0  0.80518  0.42159  0.76746  1.0000
  C  Sn28      1.0  0.83149  0.41731  0.78385  1.0000
  O  Te25      1.0  0.88327  0.43215  0.79458  1.0000
  O  Te26      1.0  0.82774  0.48559  0.71889  1.0000
  O  Te27      1.0  0.77702  0.44804  0.72968  1.0000
  O  Te28      1.0  0.83256  0.39460  0.80539  1.0000
  Mg  Mg13      1.0  0.78655  0.48204  0.70273  1.0000
  Mg  Mg14      1.0  0.87373  0.39814  0.82157  1.0000
  C  Sn29      1.0  0.31879  0.93364  0.23388  1.0000
  C   C303      1.0  0.31783  0.91389  0.25821  1.0000
  C  Sn30      1.0  0.33189  0.92137  0.28523  1.0000
  C  Sn31      1.0  0.34723  0.94918  0.28801  1.0000
  C   C304      1.0  0.34818  0.96892  0.26370  1.0000
  C  Sn32      1.0  0.33412  0.96145  0.23666  1.0000
  O  Te29      1.0  0.30457  0.92570  0.20708  1.0000
  O  Te30      1.0  0.33063  0.90125  0.30924  1.0000
  O  Te31      1.0  0.36145  0.95711  0.31485  1.0000
  O  Te32      1.0  0.33537  0.98156  0.21267  1.0000
  Mg  Mg15      1.0  0.35346  0.92222  0.34115  1.0000
  Mg  Mg16      1.0  0.31254  0.96062  0.18075  1.0000
  C  Sn33      1.0  0.20973  0.33449  0.06958  1.0000
  C   C305      1.0  0.22794  0.31071  0.07878  1.0000
  C  Sn34      1.0  0.25706  0.30762  0.06734  1.0000
  C  Sn35      1.0  0.26822  0.32875  0.04627  1.0000
  C   C306      1.0  0.25002  0.35251  0.03708  1.0000
  C  Sn36      1.0  0.22089  0.35562  0.04851  1.0000
  O  Te33      1.0  0.18069  0.33714  0.08132  1.0000
  O  Te34      1.0  0.27484  0.28365  0.07687  1.0000
  O  Te35      1.0  0.29729  0.32608  0.03454  1.0000
  O  Te36      1.0  0.20312  0.37957  0.03900  1.0000
  Mg  Mg17      1.0  0.31289  0.28963  0.05444  1.0000
  Mg  Mg18      1.0  0.16507  0.37362  0.06142  1.0000
  C  Sn37      1.0  0.76673  0.81464  0.56515  1.0000
  C   C307      1.0  0.74246  0.81366  0.58519  1.0000
  C  Sn38      1.0  0.71582  0.82880  0.57867  1.0000
  C  Sn39      1.0  0.71339  0.84525  0.55155  1.0000
  C   C308      1.0  0.73764  0.84621  0.53153  1.0000
  C  Sn40      1.0  0.76429  0.83108  0.53803  1.0000
  O  Te37      1.0  0.79314  0.79933  0.57213  1.0000
  O  Te38      1.0  0.69187  0.82751  0.59906  1.0000
  O  Te39      1.0  0.68695  0.86056  0.54459  1.0000
  O  Te40      1.0  0.78824  0.83237  0.51766  1.0000
  Mg  Mg19      1.0  0.66055  0.85205  0.57949  1.0000
  Mg  Mg20      1.0  0.81956  0.80782  0.53720  1.0000
  C  Sn41      1.0  0.76165  0.18425  0.95889  1.0000
  C   C309      1.0  0.74362  0.16056  0.96885  1.0000
  C  Sn42      1.0  0.72061  0.14938  0.95072  1.0000
  C  Sn43      1.0  0.71554  0.16214  0.92203  1.0000
  C   C310      1.0  0.73358  0.18581  0.91207  1.0000
  C  Sn44      1.0  0.75659  0.19701  0.93019  1.0000
  O  Te41      1.0  0.78452  0.19506  0.97738  1.0000
  O  Te42      1.0  0.70287  0.12569  0.96118  1.0000
  O  Te43      1.0  0.69265  0.15131  0.90353  1.0000
  O  Te44      1.0  0.77433  0.22068  0.91975  1.0000
  Mg  Mg21      1.0  0.67450  0.11873  0.92773  1.0000
  Mg  Mg22      1.0  0.80271  0.22765  0.95317  1.0000
  C  Sn45      1.0  0.26558  0.68278  0.43458  1.0000
  C   C311      1.0  0.24127  0.68324  0.41485  1.0000
  C  Sn46      1.0  0.21489  0.66770  0.42180  1.0000
  C  Sn47      1.0  0.21275  0.65137  0.44904  1.0000
  C   C312      1.0  0.23705  0.65092  0.46876  1.0000
  C  Sn48      1.0  0.26344  0.66645  0.46183  1.0000
  O  Te45      1.0  0.29173  0.69848  0.42718  1.0000
  O  Te46      1.0  0.19090  0.66848  0.40171  1.0000
  O  Te47      1.0  0.18657  0.63567  0.45643  1.0000
  O  Te48      1.0  0.28742  0.66567  0.48190  1.0000
  Mg  Mg23      1.0  0.16000  0.64354  0.42182  1.0000
  Mg  Mg24      1.0  0.31833  0.69062  0.46182  1.0000
  C  Sn49      1.0  0.29420  0.66548  0.56377  1.0000
  C   C313      1.0  0.27664  0.68957  0.57385  1.0000
  C  Sn50      1.0  0.24703  0.69267  0.56415  1.0000
  C  Sn51      1.0  0.23471  0.67124  0.54396  1.0000
  C   C314      1.0  0.25227  0.64717  0.53390  1.0000
  C  Sn52      1.0  0.28189  0.64404  0.54359  1.0000
  O  Te49      1.0  0.32375  0.66281  0.57377  1.0000
  O  Te50      1.0  0.22991  0.71696  0.57452  1.0000
  O  Te51      1.0  0.20514  0.67392  0.53397  1.0000
  O  Te52      1.0  0.29900  0.61978  0.53323  1.0000
  Mg  Mg25      1.0  0.19078  0.71086  0.55447  1.0000
  Mg  Mg26      1.0  0.33812  0.62584  0.55328  1.0000
  C  Sn53      1.0  0.79328  0.16623  0.06578  1.0000
  C   C315      1.0  0.77564  0.19054  0.07515  1.0000
  C  Sn54      1.0  0.74659  0.19417  0.06406  1.0000
  C  Sn55      1.0  0.73492  0.17305  0.04317  1.0000
  C   C316      1.0  0.75256  0.14875  0.03381  1.0000
  C  Sn56      1.0  0.78162  0.14511  0.04489  1.0000
  O  Te53      1.0  0.82226  0.16304  0.07716  1.0000
  O  Te54      1.0  0.72938  0.21866  0.07376  1.0000
  O  Te55      1.0  0.70592  0.17625  0.03179  1.0000
  O  Te56      1.0  0.79882  0.12063  0.03520  1.0000
  Mg  Mg27      1.0  0.69118  0.21329  0.05182  1.0000
  Mg  Mg28      1.0  0.83701  0.12596  0.05714  1.0000
  C  Sn57      1.0  0.79016  0.83417  0.43237  1.0000
  C   C317      1.0  0.77183  0.81040  0.42310  1.0000
  C  Sn58      1.0  0.74313  0.80685  0.43542  1.0000
  C  Sn59      1.0  0.73252  0.82749  0.45744  1.0000
  C   C318      1.0  0.75084  0.85125  0.46670  1.0000
  C  Sn60      1.0  0.77955  0.85481  0.45440  1.0000
  O  Te57      1.0  0.81878  0.83729  0.41975  1.0000
  O  Te58      1.0  0.72523  0.78291  0.42580  1.0000
  O  Te59      1.0  0.70388  0.82436  0.47006  1.0000
  O  Te60      1.0  0.79745  0.87874  0.46400  1.0000
  Mg  Mg29      1.0  0.68790  0.78815  0.44965  1.0000
  Mg  Mg30      1.0  0.83477  0.87354  0.44015  1.0000
  C  Sn61      1.0  0.23413  0.31442  0.93927  1.0000
  C   C319      1.0  0.25701  0.31485  0.91762  1.0000
  C  Sn62      1.0  0.28315  0.33147  0.92255  1.0000
  C  Sn63      1.0  0.28651  0.34801  0.94969  1.0000
  C   C320      1.0  0.26364  0.34757  0.97132  1.0000
  C  Sn64      1.0  0.23749  0.33096  0.96641  1.0000
  O  Te61      1.0  0.20819  0.29765  0.93387  1.0000
  O  Te62      1.0  0.30570  0.33156  0.90057  1.0000
  O  Te63      1.0  0.31247  0.36479  0.95507  1.0000
  O  Te64      1.0  0.21495  0.33086  0.98837  1.0000
  Mg  Mg31      1.0  0.33687  0.35783  0.91834  1.0000
  Mg  Mg32      1.0  0.18378  0.30458  0.97063  1.0000
  C  Sn65      1.0  0.06598  0.20529  0.33392  1.0000
  C   C321      1.0  0.07527  0.22264  0.30946  1.0000
  C  Sn66      1.0  0.06410  0.25170  0.30564  1.0000
  C  Sn67      1.0  0.04322  0.26368  0.32672  1.0000
  C   C322      1.0  0.03395  0.24633  0.35117  1.0000
  C  Sn68      1.0  0.04511  0.21727  0.35500  1.0000
  O  Te65      1.0  0.07744  0.17630  0.33729  1.0000
  O  Te66      1.0  0.07371  0.26861  0.28100  1.0000
  O  Te67      1.0  0.03176  0.29270  0.32333  1.0000
  O  Te68      1.0  0.03551  0.20036  0.37963  1.0000
  Mg  Mg33      1.0  0.05168  0.30696  0.28613  1.0000
  Mg  Mg34      1.0  0.05754  0.16202  0.37453  1.0000
  C  Sn69      1.0  0.56233  0.70813  0.83215  1.0000
  C   C323      1.0  0.57430  0.72742  0.81045  1.0000
  C  Sn70      1.0  0.56664  0.75787  0.81050  1.0000
  C  Sn71      1.0  0.54661  0.76928  0.83269  1.0000
  C   C324      1.0  0.53466  0.74999  0.85437  1.0000
  C  Sn72      1.0  0.54230  0.71954  0.85434  1.0000
  O  Te69      1.0  0.57030  0.67777  0.83168  1.0000
  O  Te70      1.0  0.57889  0.77671  0.78857  1.0000
  O  Te71      1.0  0.53865  0.79966  0.83314  1.0000
  O  Te72      1.0  0.53007  0.70070  0.87625  1.0000
  Mg  Mg35      1.0  0.56122  0.81638  0.79858  1.0000
  Mg  Mg36      1.0  0.54774  0.66104  0.86627  1.0000
  C  Sn73      1.0  0.93811  0.71989  0.14595  1.0000
  C   C325      1.0  0.95875  0.74355  0.14555  1.0000
  C  Sn74      1.0  0.96161  0.76258  0.17046  1.0000
  C  Sn75      1.0  0.94346  0.75784  0.19633  1.0000
  C   C326      1.0  0.92284  0.73419  0.19673  1.0000
  C  Sn76      1.0  0.91997  0.71516  0.17182  1.0000
  O  Te73      1.0  0.93564  0.70115  0.12079  1.0000
  O  Te74      1.0  0.98239  0.78609  0.16952  1.0000
  O  Te75      1.0  0.94595  0.77661  0.22150  1.0000
  O  Te76      1.0  0.89920  0.69166  0.17276  1.0000
  Mg  Mg37      1.0  0.97750  0.80554  0.20940  1.0000
  Mg  Mg38      1.0  0.90409  0.67218  0.13290  1.0000
  C  Sn77      1.0  0.43701  0.22087  0.64335  1.0000
  C   C327      1.0  0.45842  0.24384  0.64423  1.0000
  C  Sn78      1.0  0.46086  0.26231  0.66960  1.0000
  C  Sn79      1.0  0.44152  0.25774  0.69462  1.0000
  C   C328      1.0  0.42014  0.23479  0.69374  1.0000
  C  Sn80      1.0  0.41768  0.21630  0.66838  1.0000
  O  Te77      1.0  0.43497  0.20267  0.61776  1.0000
  O  Te78      1.0  0.48242  0.28513  0.66995  1.0000
  O  Te79      1.0  0.44358  0.27597  0.72022  1.0000
  O  Te80      1.0  0.39613  0.19349  0.66802  1.0000
  Mg  Mg39      1.0  0.47653  0.30403  0.70996  1.0000
  Mg  Mg40      1.0  0.40202  0.17457  0.62803  1.0000
  C  Sn81      1.0  0.53706  0.24459  0.68605  1.0000
  C   C329      1.0  0.53027  0.25984  0.65955  1.0000
  C  Sn82      1.0  0.55209  0.27726  0.64515  1.0000
  C  Sn83      1.0  0.58130  0.27947  0.65750  1.0000
  C   C330      1.0  0.58808  0.26422  0.68399  1.0000
  C  Sn84      1.0  0.56628  0.24680  0.69840  1.0000
  O  Te81      1.0  0.51490  0.22731  0.70006  1.0000
  O  Te82      1.0  0.54477  0.29231  0.61868  1.0000
  O  Te83      1.0  0.60346  0.29678  0.64347  1.0000
  O  Te84      1.0  0.57358  0.23176  0.72486  1.0000
  Mg  Mg41      1.0  0.58263  0.31306  0.60789  1.0000
  Mg  Mg42      1.0  0.53575  0.21099  0.73566  1.0000
  C  Sn85      1.0  0.06241  0.73460  0.18439  1.0000
  C   C331      1.0  0.08421  0.75718  0.18328  1.0000
  C  Sn86      1.0  0.07944  0.78305  0.16629  1.0000
  C  Sn87      1.0  0.05232  0.78644  0.15009  1.0000
  C   C332      1.0  0.03054  0.76387  0.15121  1.0000
  C  Sn88      1.0  0.03529  0.73798  0.16819  1.0000
  O  Te85      1.0  0.06766  0.70892  0.20152  1.0000
  O  Te86      1.0  0.10156  0.80531  0.16552  1.0000
  O  Te87      1.0  0.04709  0.81214  0.13296  1.0000
  O  Te88      1.0  0.01319  0.71573  0.16897  1.0000
  Mg  Mg43      1.0  0.08398  0.83619  0.13898  1.0000
  Mg  Mg44      1.0  0.03074  0.68485  0.19551  1.0000
  C  Sn89      1.0  0.43699  0.73623  0.81504  1.0000
  C   C333      1.0  0.41642  0.75994  0.81462  1.0000
  C  Sn90      1.0  0.42216  0.78641  0.83063  1.0000
  C  Sn91      1.0  0.44902  0.78924  0.84739  1.0000
  C   C334      1.0  0.46957  0.76554  0.84780  1.0000
  C  Sn92      1.0  0.46385  0.73906  0.83180  1.0000
  O  Te89      1.0  0.43079  0.70998  0.79887  1.0000
  O  Te90      1.0  0.40126  0.80980  0.82988  1.0000
  O  Te91      1.0  0.45521  0.81551  0.86357  1.0000
  O  Te92      1.0  0.48474  0.71568  0.83254  1.0000
  Mg  Mg45      1.0  0.41982  0.84110  0.85555  1.0000
  Mg  Mg46      1.0  0.46620  0.68437  0.80686  1.0000
  C  Sn93      1.0  0.93662  0.23320  0.31430  1.0000
  C   C335      1.0  0.91533  0.25625  0.31530  1.0000
  C  Sn94      1.0  0.92056  0.28218  0.33234  1.0000
  C  Sn95      1.0  0.94765  0.28513  0.34871  1.0000
  C   C336      1.0  0.96893  0.26208  0.34770  1.0000
  C  Sn96      1.0  0.96371  0.23615  0.33067  1.0000
  O  Te93      1.0  0.93092  0.20748  0.29711  1.0000
  O  Te94      1.0  0.89893  0.30492  0.33300  1.0000
  O  Te95      1.0  0.95334  0.31087  0.36590  1.0000
  O  Te96      1.0  0.98532  0.21341  0.33000  1.0000
  Mg  Mg47      1.0  0.91703  0.33566  0.35967  1.0000
  Mg  Mg48      1.0  0.96726  0.18267  0.30333  1.0000
  C  Sn97      1.0  0.32775  0.59305  0.46767  1.0000
  C   C337      1.0  0.33518  0.56773  0.48455  1.0000
  C  Sn98      1.0  0.31428  0.55519  0.50439  1.0000
  C  Sn99      1.0  0.28534  0.56821  0.50741  1.0000
  C   C338      1.0  0.27793  0.59350  0.49053  1.0000
  C  Sn100     1.0  0.29882  0.60607  0.47069  1.0000
  O  Te97      1.0  0.34900  0.60521  0.44797  1.0000
  O  Te98      1.0  0.32222  0.52988  0.52104  1.0000
  O  Te99      1.0  0.26409  0.55602  0.52713  1.0000
  O  Te100     1.0  0.29088  0.63135  0.45404  1.0000
  Mg  Mg49      1.0  0.28552  0.52148  0.54489  1.0000
  Mg  Mg50      1.0  0.32756  0.63976  0.43017  1.0000
  C  Sn101     1.0  0.80181  0.09376  0.95722  1.0000
  C   C339      1.0  0.78248  0.09504  0.98207  1.0000
  C  Sn102     1.0  0.79562  0.07511  0.00867  1.0000
  C  Sn103     1.0  0.82285  0.05871  0.01049  1.0000
  C   C340      1.0  0.83636  0.06258  0.98566  1.0000
  C  Sn104     1.0  0.82904  0.07736  0.95904  1.0000
  O  Te101     1.0  0.79403  0.10871  0.93085  1.0000
  O  Te102     1.0  0.77593  0.07671  0.03321  1.0000
  O  Te103     1.0  0.83062  0.04375  0.03690  1.0000
  O  Te104     1.0  0.84872  0.07577  0.93451  1.0000
  Mg  Mg51      1.0  0.79647  0.05259  0.06422  1.0000
  Mg  Mg52      1.0  0.82821  0.09989  0.90350  1.0000
  C  Sn105     1.0  0.20062  0.42355  0.01919  1.0000
  C   C341      1.0  0.21047  0.39921  0.00176  1.0000
  C  Sn106     1.0  0.19414  0.40034  0.97247  1.0000
  C  Sn107     1.0  0.17336  0.42110  0.96034  1.0000
  C   C342      1.0  0.16352  0.44542  0.97777  1.0000
  C  Sn108     1.0  0.17983  0.44430  0.00706  1.0000
  O  Te105     1.0  0.21144  0.42712  0.04841  1.0000
  O  Te106     1.0  0.20431  0.37583  0.95548  1.0000
  O  Te107     1.0  0.16254  0.41751  0.93110  1.0000
  O  Te108     1.0  0.16968  0.46880  0.02404  1.0000
  Mg  Mg53      1.0  0.18306  0.38060  0.91681  1.0000
  Mg  Mg54      1.0  0.19093  0.46407  0.06271  1.0000
  C  Sn109     1.0  0.69777  0.94453  0.50860  1.0000
  C   C343      1.0  0.67739  0.94409  0.48481  1.0000
  C  Sn110     1.0  0.67499  0.91874  0.46632  1.0000
  C  Sn111     1.0  0.69332  0.89329  0.47171  1.0000
  C   C344      1.0  0.71368  0.89374  0.49548  1.0000
  C  Sn112     1.0  0.71610  0.91909  0.51399  1.0000
  O  Te109     1.0  0.69979  0.97012  0.52681  1.0000
  O  Te110     1.0  0.65445  0.91883  0.44267  1.0000
  O  Te111     1.0  0.69128  0.86770  0.45347  1.0000
  O  Te112     1.0  0.73662  0.91900  0.53762  1.0000
  Mg  Mg55      1.0  0.65994  0.87865  0.42411  1.0000
  Mg  Mg56      1.0  0.73114  0.95916  0.55621  1.0000
  C  Sn113     1.0  0.79990  0.92138  0.48312  1.0000
  C   C345      1.0  0.78993  0.89802  0.50156  1.0000
  C  Sn114     1.0  0.80007  0.89578  0.53114  1.0000
  C  Sn115     1.0  0.82058  0.91735  0.54253  1.0000
  C   C346      1.0  0.83053  0.94069  0.52410  1.0000
  C  Sn116     1.0  0.82041  0.94294  0.49451  1.0000
  O  Te113     1.0  0.78947  0.92318  0.45362  1.0000
  O  Te114     1.0  0.78980  0.87223  0.54914  1.0000
  O  Te115     1.0  0.83101  0.91553  0.57206  1.0000
  O  Te116     1.0  0.83066  0.96649  0.47652  1.0000
  Mg  Mg57      1.0  0.81049  0.87937  0.58782  1.0000
  Mg  Mg58      1.0  0.80998  0.95938  0.43785  1.0000
  C  Sn117     1.0  0.32706  0.40710  0.03336  1.0000
  C   C347      1.0  0.33590  0.43116  0.01526  1.0000
  C  Sn118     1.0  0.31056  0.44786  0.99373  1.0000
  C  Sn119     1.0  0.28159  0.43512  0.99023  1.0000
  C   C348      1.0  0.27857  0.40593  0.00832  1.0000
  C  Sn120     1.0  0.29809  0.39435  0.02985  1.0000
  O  Te117     1.0  0.34694  0.39591  0.05474  1.0000
  O  Te118     1.0  0.31991  0.47192  0.97590  1.0000
  O  Te119     1.0  0.26171  0.44633  0.96883  1.0000
  O  Te120     1.0  0.28875  0.37032  0.04769  1.0000
  Mg  Mg59      1.0  0.28476  0.47932  0.94990  1.0000
  Mg  Mg60      1.0  0.32388  0.36291  0.07370  1.0000
  C  Sn121     1.0  0.69498  0.05798  0.98961  1.0000
  C   C349      1.0  0.67893  0.05459  0.01223  1.0000
  C  Sn122     1.0  0.67725  0.07985  0.03096  1.0000
  C  Sn123     1.0  0.69783  0.10385  0.02700  1.0000
  C   C350      1.0  0.71967  0.10209  0.00438  1.0000
  C  Sn124     1.0  0.71556  0.08199  0.98564  1.0000
  O  Te121     1.0  0.69625  0.03252  0.97114  1.0000
  O  Te122     1.0  0.65521  0.08109  0.05343  1.0000
  O  Te123     1.0  0.69655  0.12932  0.04549  1.0000
  O  Te124     1.0  0.73758  0.08075  0.96318  1.0000
  Mg  Mg61      1.0  0.66252  0.12051  0.07290  1.0000
  Mg  Mg62      1.0  0.73028  0.04134  0.94369  1.0000
  C  Sn125     1.0  0.19796  0.59362  0.53921  1.0000
  C   C351      1.0  0.21771  0.59432  0.51468  1.0000
  C  Sn126     1.0  0.21054  0.57940  0.48794  1.0000
  C  Sn127     1.0  0.18305  0.56348  0.48566  1.0000
  C   C352      1.0  0.16331  0.56279  0.51018  1.0000
  C  Sn128     1.0  0.17046  0.57769  0.53693  1.0000
  O  Te125     1.0  0.20558  0.60869  0.56572  1.0000
  O  Te126     1.0  0.23065  0.58041  0.46372  1.0000
  O  Te127     1.0  0.17544  0.54840  0.45912  1.0000
  O  Te128     1.0  0.15037  0.57669  0.56113  1.0000
  Mg  Mg63      1.0  0.21018  0.55636  0.43236  1.0000
  Mg  Mg64      1.0  0.17081  0.60075  0.59250  1.0000
  C  Sn129     1.0  0.59409  0.46018  0.29970  1.0000
  C   C353      1.0  0.59468  0.48459  0.28005  1.0000
  C  Sn130     1.0  0.57923  0.51101  0.28722  1.0000
  C  Sn131     1.0  0.56286  0.51309  0.31461  1.0000
  C   C354      1.0  0.56227  0.48869  0.33424  1.0000
  C  Sn132     1.0  0.57772  0.46225  0.32709  1.0000
  O  Te129     1.0  0.60971  0.43398  0.29207  1.0000
  O  Te130     1.0  0.58014  0.53512  0.26721  1.0000
  O  Te131     1.0  0.54723  0.53931  0.32222  1.0000
  O  Te132     1.0  0.57681  0.43816  0.34708  1.0000
  Mg  Mg65      1.0  0.55527  0.56604  0.28764  1.0000
  Mg  Mg66      1.0  0.60169  0.40724  0.32668  1.0000
  C  Sn133     1.0  0.09766  0.96770  0.82617  1.0000
  C   C355      1.0  0.07186  0.98358  0.83463  1.0000
  C  Sn134     1.0  0.05812  0.00315  0.81446  1.0000
  C  Sn135     1.0  0.07021  0.00693  0.78522  1.0000
  C   C356      1.0  0.09620  0.99105  0.77678  1.0000
  C  Sn136     1.0  0.10995  0.97147  0.79693  1.0000
  O  Te133     1.0  0.11101  0.94825  0.84670  1.0000
  O  Te134     1.0  0.03214  0.01879  0.82343  1.0000
  O  Te135     1.0  0.05682  0.02640  0.76469  1.0000
  O  Te136     1.0  0.13570  0.95584  0.78797  1.0000
  Mg  Mg67      1.0  0.02206  0.04269  0.78743  1.0000
  Mg  Mg68      1.0  0.14579  0.93193  0.82395  1.0000
  C  Sn137     1.0  0.42327  0.01960  0.20299  1.0000
  C   C357      1.0  0.40054  0.00041  0.21258  1.0000
  C  Sn138     1.0  0.39890  0.97098  0.20163  1.0000
  C  Sn139     1.0  0.42066  0.96049  0.18065  1.0000
  C   C358      1.0  0.44359  0.97967  0.17107  1.0000
  C  Sn140     1.0  0.44503  0.00911  0.18201  1.0000
  O  Te137     1.0  0.42447  0.04893  0.21424  1.0000
  O  Te138     1.0  0.37575  0.95222  0.21155  1.0000
  O  Te139     1.0  0.41945  0.93112  0.16941  1.0000
  O  Te140     1.0  0.46817  0.02786  0.17210  1.0000
  Mg  Mg69      1.0  0.38367  0.91411  0.18972  1.0000
  Mg  Mg70      1.0  0.46028  0.06597  0.19393  1.0000
  C  Sn141     1.0  0.94632  0.50521  0.69872  1.0000
  C   C359      1.0  0.94361  0.48437  0.67526  1.0000
  C  Sn142     1.0  0.91663  0.46901  0.67081  1.0000
  C  Sn143     1.0  0.89183  0.47460  0.69021  1.0000
  C   C360      1.0  0.89455  0.49542  0.71365  1.0000
  C  Sn144     1.0  0.92153  0.51079  0.71811  1.0000
  O  Te141     1.0  0.97351  0.52031  0.70274  1.0000
  O  Te142     1.0  0.91446  0.44828  0.64721  1.0000
  O  Te143     1.0  0.86464  0.45947  0.68616  1.0000
  O  Te144     1.0  0.92370  0.53152  0.74170  1.0000
  Mg  Mg71      1.0  0.87272  0.43336  0.65086  1.0000
  Mg  Mg72      1.0  0.96543  0.54646  0.73806  1.0000
  C  Sn145     1.0  0.94574  0.49299  0.80252  1.0000
  C   C361      1.0  0.94545  0.51586  0.82418  1.0000
  C  Sn146     1.0  0.92030  0.53435  0.82760  1.0000
  C  Sn147     1.0  0.89491  0.52988  0.80899  1.0000
  C   C362      1.0  0.89521  0.50702  0.78735  1.0000
  C  Sn148     1.0  0.92035  0.48852  0.78391  1.0000
  O  Te145     1.0  0.97112  0.47477  0.79949  1.0000
  O  Te146     1.0  0.92054  0.55708  0.84941  1.0000
  O  Te147     1.0  0.86952  0.54813  0.81204  1.0000
  O  Te148     1.0  0.92012  0.46580  0.76212  1.0000
  Mg  Mg73      1.0  0.88061  0.57605  0.84495  1.0000
  Mg  Mg74      1.0  0.96003  0.44681  0.76657  1.0000
  C  Sn149     1.0  0.40627  0.03776  0.30504  1.0000
  C   C363      1.0  0.40532  0.01398  0.28441  1.0000
  C  Sn150     1.0  0.42029  0.98700  0.29047  1.0000
  C  Sn151     1.0  0.43632  0.98371  0.31773  1.0000
  C   C364      1.0  0.43705  0.00748  0.33834  1.0000
  C  Sn152     1.0  0.42230  0.03447  0.33230  1.0000
  O  Te149     1.0  0.39135  0.06453  0.29851  1.0000
  O  Te150     1.0  0.41903  0.96354  0.26950  1.0000
  O  Te151     1.0  0.45125  0.95691  0.32424  1.0000
  O  Te152     1.0  0.42355  0.05792  0.35326  1.0000
  Mg  Mg75      1.0  0.44296  0.93145  0.28861  1.0000
  Mg  Mg76      1.0  0.39962  0.09001  0.33417  1.0000
  C  Sn153     1.0  0.09635  0.03238  0.67068  1.0000
  C   C365      1.0  0.07095  0.01588  0.66249  1.0000
  C  Sn154     1.0  0.05818  0.99559  0.68260  1.0000
  C  Sn155     1.0  0.07085  0.99171  0.71152  1.0000
  C   C366      1.0  0.09602  0.00820  0.71970  1.0000
  C  Sn156     1.0  0.10902  0.02850  0.69960  1.0000
  O  Te153     1.0  0.10895  0.05254  0.65021  1.0000
  O  Te154     1.0  0.03280  0.97934  0.67390  1.0000
  O  Te155     1.0  0.05823  0.97152  0.73199  1.0000
  O  Te156     1.0  0.13438  0.04474  0.70830  1.0000
  Mg  Mg77      1.0  0.02375  0.95458  0.70970  1.0000
  Mg  Mg78      1.0  0.14344  0.06952  0.67252  1.0000
  C  Sn157     1.0  0.55511  0.49287  0.19485  1.0000
  C   C367      1.0  0.55581  0.51589  0.17358  1.0000
  C  Sn158     1.0  0.58100  0.53443  0.17098  1.0000
  C  Sn159     1.0  0.60602  0.52986  0.19002  1.0000
  C   C368      1.0  0.60531  0.50685  0.21126  1.0000
  C  Sn160     1.0  0.58013  0.48830  0.21388  1.0000
  O  Te157     1.0  0.52969  0.47460  0.19705  1.0000
  O  Te158     1.0  0.58118  0.55730  0.14956  1.0000
  O  Te159     1.0  0.63144  0.54815  0.18779  1.0000
  O  Te160     1.0  0.57994  0.46543  0.23528  1.0000
  Mg  Mg79      1.0  0.62099  0.57628  0.15514  1.0000
  Mg  Mg80      1.0  0.54016  0.44643  0.22971  1.0000
  C  Sn161     1.0  0.46266  0.30500  0.59614  1.0000
  C   C369      1.0  0.48512  0.28308  0.59521  1.0000
  C  Sn162     1.0  0.51118  0.28761  0.57818  1.0000
  C  Sn163     1.0  0.51487  0.31462  0.56176  1.0000
  C   C370      1.0  0.49242  0.33653  0.56271  1.0000
  C  Sn164     1.0  0.46635  0.33201  0.57972  1.0000
  O  Te161     1.0  0.43680  0.30000  0.61331  1.0000
  O  Te162     1.0  0.53332  0.26537  0.57758  1.0000
  O  Te163     1.0  0.54076  0.31961  0.54458  1.0000
  O  Te164     1.0  0.44422  0.35424  0.58033  1.0000
  Mg  Mg81      1.0  0.56454  0.28263  0.55091  1.0000
  Mg  Mg82      1.0  0.41300  0.33701  0.60701  1.0000
  C  Sn165     1.0  0.00687  0.80460  0.05496  1.0000
  C   C371      1.0  0.98341  0.82544  0.05574  1.0000
  C  Sn166     1.0  0.96476  0.82769  0.08102  1.0000
  C  Sn167     1.0  0.96967  0.80871  0.10606  1.0000
  C   C372      1.0  0.99312  0.78788  0.10527  1.0000
  C  Sn168     1.0  0.01178  0.78562  0.07999  1.0000
  O  Te165     1.0  0.02524  0.80274  0.02945  1.0000
  O  Te166     1.0  0.94144  0.84870  0.08128  1.0000
  O  Te167     1.0  0.95128  0.81058  0.13157  1.0000
  O  Te168     1.0  0.03509  0.76463  0.07973  1.0000
  Mg  Mg83      1.0  0.92249  0.84274  0.12120  1.0000
  Mg  Mg84      1.0  0.05407  0.77058  0.03983  1.0000
  C  Sn169     1.0  0.96599  0.17169  0.40461  1.0000
  C   C373      1.0  0.98334  0.16292  0.42914  1.0000
  C  Sn170     1.0  0.00439  0.18263  0.44152  1.0000
  C  Sn171     1.0  0.00816  0.21171  0.42914  1.0000
  C   C374      1.0  0.99082  0.22047  0.40463  1.0000
  C  Sn172     1.0  0.96976  0.20077  0.39223  1.0000
  O  Te169     1.0  0.94508  0.15162  0.39259  1.0000
  O  Te170     1.0  0.02148  0.17335  0.46604  1.0000
  O  Te171     1.0  0.02910  0.23178  0.44119  1.0000
  O  Te172     1.0  0.95268  0.21004  0.36773  1.0000
  Mg  Mg85      1.0  0.04705  0.20876  0.47455  1.0000
  Mg  Mg86      1.0  0.92709  0.17465  0.35922  1.0000
  C  Sn173     1.0  0.47038  0.67319  0.90533  1.0000
  C   C375      1.0  0.48446  0.66785  0.93280  1.0000
  C  Sn174     1.0  0.50059  0.69069  0.94710  1.0000
  C  Sn175     1.0  0.50268  0.71947  0.93368  1.0000
  C   C376      1.0  0.48860  0.72480  0.90623  1.0000
  C  Sn176     1.0  0.47247  0.70197  0.89191  1.0000
  O  Te173     1.0  0.45436  0.65003  0.89144  1.0000
  O  Te174     1.0  0.51449  0.68481  0.97455  1.0000
  O  Te175     1.0  0.51872  0.74264  0.94760  1.0000
  O  Te176     1.0  0.45857  0.70784  0.86448  1.0000
  Mg  Mg87      1.0  0.53373  0.72364  0.98476  1.0000
  Mg  Mg88      1.0  0.43932  0.66904  0.85426  1.0000
  C  Sn177     1.0  0.54011  0.80141  0.90833  1.0000
  C   C377      1.0  0.51422  0.78377  0.90631  1.0000
  C  Sn178     1.0  0.48754  0.79314  0.92012  1.0000
  C  Sn179     1.0  0.48671  0.82071  0.93626  1.0000
  C   C378      1.0  0.51259  0.83833  0.93826  1.0000
  C  Sn180     1.0  0.53928  0.82898  0.92446  1.0000
  O  Te177     1.0  0.56654  0.79161  0.89435  1.0000
  O  Te178     1.0  0.46195  0.77512  0.91781  1.0000
  O  Te179     1.0  0.46025  0.83050  0.95024  1.0000
  O  Te180     1.0  0.56486  0.84699  0.92677  1.0000
  Mg  Mg89      1.0  0.43130  0.79812  0.94070  1.0000
  Mg  Mg90      1.0  0.59551  0.82402  0.90387  1.0000
  C  Sn181     1.0  0.98118  0.29799  0.42325  1.0000
  C   C379      1.0  0.99896  0.28824  0.39910  1.0000
  C  Sn182     1.0  0.02821  0.29904  0.39552  1.0000
  C  Sn183     1.0  0.03995  0.32001  0.41652  1.0000
  C   C380      1.0  0.02218  0.32974  0.44065  1.0000
  C  Sn184     1.0  0.99292  0.31896  0.44425  1.0000
  O  Te181     1.0  0.95200  0.28690  0.42640  1.0000
  O  Te182     1.0  0.04555  0.28897  0.37119  1.0000
  O  Te183     1.0  0.06915  0.33110  0.41335  1.0000
  O  Te184     1.0  0.97559  0.32902  0.46857  1.0000
  Mg  Mg91      1.0  0.08401  0.31062  0.37655  1.0000
  Mg  Mg92      1.0  0.93714  0.30737  0.46324  1.0000
  C  Sn185     1.0  0.03980  0.69802  0.09514  1.0000
  C   C381      1.0  0.01615  0.71865  0.09489  1.0000
  C  Sn186     1.0  0.99022  0.71264  0.07838  1.0000
  C  Sn187     1.0  0.98787  0.68543  0.06179  1.0000
  C   C382      1.0  0.01152  0.66482  0.06204  1.0000
  C  Sn188     1.0  0.03746  0.67081  0.07854  1.0000
  O  Te185     1.0  0.06551  0.70449  0.11180  1.0000
  O  Te186     1.0  0.96687  0.73361  0.07847  1.0000
  O  Te187     1.0  0.96214  0.67897  0.04511  1.0000
  O  Te188     1.0  0.06080  0.64986  0.07846  1.0000
  Mg  Mg93      1.0  0.93639  0.71458  0.05230  1.0000
  Mg  Mg94      1.0  0.09127  0.66885  0.10463  1.0000
  C  Sn189     1.0  0.48170  0.20099  0.57631  1.0000
  C   C383      1.0  0.49961  0.21075  0.60014  1.0000
  C  Sn190     1.0  0.52887  0.19995  0.60324  1.0000
  C  Sn191     1.0  0.54048  0.17896  0.58206  1.0000
  C   C384      1.0  0.52258  0.16921  0.55823  1.0000
  C  Sn192     1.0  0.49331  0.18000  0.55512  1.0000
  O  Te189     1.0  0.45251  0.21209  0.57365  1.0000
  O  Te190     1.0  0.54634  0.21003  0.62727  1.0000
  O  Te191     1.0  0.56970  0.16786  0.58473  1.0000
  O  Te192     1.0  0.47585  0.16993  0.53111  1.0000
  Mg  Mg95      1.0  0.58476  0.18837  0.62127  1.0000
  Mg  Mg96      1.0  0.43744  0.19159  0.53708  1.0000
