data_image0
_chemical_formula_structural       C2HOCHC4HOHC5HOHC3HOCHC2HOCHC4HOHC5HOHC3HOCHC2HOCHC4HOHC5HOHC3HOCHC2HOCHC4HOHC5HOHC3HOCHC2HOCHC4HOHC5HOHC3HOCHC2HOCHC4HOHC5HOHC3HOCHB2C2BC2B3C2BC2B3C2BC2BC5Sn2C2HTe2HMgC2Sn2C2HTe2HMgC2Sn2C2HTe2HMgC2Sn2C2HTe2HMgC2Sn2C2HTe2HMgC2Sn2C2HTe2HMg
_chemical_formula_sum              "C135 H60 O24 B12 Sn12 Te12 Mg6"
_cell_length_a       28.4777
_cell_length_b       28.3457
_cell_length_c       28.2805
_cell_angle_alpha    90.1447
_cell_angle_beta     90.1567
_cell_angle_gamma    90.1029

_symmetry_space_group_name_H-M    'P1'
_space_group_IT_number       1

loop_
  _space_group_symop_operation_xyz
  'x, y, z'

loop_
  _atom_site_type_symbol
  _atom_site_label
  _atom_site_symmetry_multiplicity
  _atom_site_fract_x
  _atom_site_fract_y
  _atom_site_fract_z
  _atom_site_occupancy
  C   C1        1.0  0.77477  0.81113  0.15148  1.0000
  C   C2        1.0  0.70702  0.84749  0.11623  1.0000
  H   H1        1.0  0.73553  0.78293  0.09058  1.0000
  O   O1        1.0  0.66950  0.85514  0.08582  1.0000
  C   C3        1.0  0.73870  0.81095  0.11658  1.0000
  H   H2        1.0  0.40216  0.01889  0.13177  1.0000
  C   C4        1.0  0.41060  0.09459  0.03893  1.0000
  C   C5        1.0  0.44631  0.07226  0.01389  1.0000
  C   C6        1.0  0.22387  0.18415  0.15216  1.0000
  C   C7        1.0  0.29285  0.14848  0.11925  1.0000
  H   H3        1.0  0.26144  0.20960  0.08941  1.0000
  O   O2        1.0  0.33033  0.14053  0.08928  1.0000
  H   H4        1.0  0.45800  0.08692  0.98043  1.0000
  C   C8        1.0  0.25964  0.18343  0.11724  1.0000
  C   C9        1.0  0.41172  0.90486  0.96791  1.0000
  C   C10       1.0  0.44841  0.92920  0.98978  1.0000
  C   C11       1.0  0.22354  0.81178  0.84880  1.0000
  C   C12       1.0  0.29025  0.84787  0.88670  1.0000
  H   H5        1.0  0.25890  0.78466  0.91227  1.0000
  O   O3        1.0  0.32644  0.85587  0.91872  1.0000
  H   H6        1.0  0.46321  0.91559  0.02246  1.0000
  C   C13       1.0  0.25778  0.81198  0.88554  1.0000
  C   C14       1.0  0.77553  0.18997  0.84636  1.0000
  C   C15       1.0  0.70757  0.15495  0.88229  1.0000
  H   H7        1.0  0.74032  0.21664  0.90997  1.0000
  O   O4        1.0  0.67121  0.14736  0.91388  1.0000
  C   C16       1.0  0.74076  0.19014  0.88231  1.0000
  H   H8        1.0  0.39332  0.97837  0.87484  1.0000
  C   C17       1.0  0.15431  0.77368  0.80920  1.0000
  C   C18       1.0  0.11910  0.70452  0.84331  1.0000
  H   H9        1.0  0.09298  0.73608  0.78032  1.0000
  O   O5        1.0  0.08834  0.66710  0.85025  1.0000
  C   C19       1.0  0.11945  0.73765  0.80792  1.0000
  H   H10       1.0  0.13490  0.40177  0.02141  1.0000
  C   C20       1.0  0.04042  0.40933  0.09449  1.0000
  C   C21       1.0  0.01617  0.44539  0.07174  1.0000
  C   C22       1.0  0.15354  0.22322  0.18789  1.0000
  C   C23       1.0  0.12090  0.29214  0.15110  1.0000
  H   H11       1.0  0.09372  0.26389  0.21514  1.0000
  O   O6        1.0  0.09205  0.33058  0.14324  1.0000
  H   H12       1.0  0.98229  0.45660  0.08532  1.0000
  C   C24       1.0  0.11996  0.26028  0.18765  1.0000
  C   C25       1.0  0.97126  0.40564  0.90893  1.0000
  C   C26       1.0  0.99429  0.44231  0.93222  1.0000
  C   C27       1.0  0.84988  0.22300  0.81274  1.0000
  C   C28       1.0  0.88817  0.28830  0.85120  1.0000
  H   H13       1.0  0.91754  0.25352  0.79140  1.0000
  O   O7        1.0  0.92130  0.32276  0.86142  1.0000
  H   H14       1.0  0.02842  0.45401  0.91967  1.0000
  C   C29       1.0  0.88835  0.25492  0.81589  1.0000
  C   C30       1.0  0.84392  0.77228  0.18978  1.0000
  C   C31       1.0  0.87992  0.70494  0.15308  1.0000
  H   H15       1.0  0.90616  0.73524  0.21675  1.0000
  O   O8        1.0  0.91158  0.66879  0.14490  1.0000
  C   C32       1.0  0.87919  0.73688  0.18970  1.0000
  H   H16       1.0  0.87381  0.39855  0.97795  1.0000
  C   C33       1.0  0.80995  0.15463  0.77313  1.0000
  C   C34       1.0  0.84178  0.12206  0.70165  1.0000
  H   H17       1.0  0.77941  0.09537  0.73331  1.0000
  O   O9        1.0  0.84764  0.09245  0.66309  1.0000
  C   C35       1.0  0.80739  0.12128  0.73560  1.0000
  H   H18       1.0  0.02092  0.13079  0.40071  1.0000
  C   C36       1.0  0.09257  0.03536  0.41061  1.0000
  C   C37       1.0  0.06859  0.01111  0.44589  1.0000
  C   C38       1.0  0.18687  0.15029  0.22474  1.0000
  C   C39       1.0  0.15009  0.11644  0.29304  1.0000
  H   H19       1.0  0.20962  0.08534  0.26026  1.0000
  O   O10       1.0  0.14079  0.08530  0.32940  1.0000
  H   H20       1.0  0.08158  0.97710  0.45783  1.0000
  C   C40       1.0  0.18494  0.11441  0.25967  1.0000
  C   C41       1.0  0.90591  0.96444  0.40814  1.0000
  C   C42       1.0  0.93055  0.98923  0.44269  1.0000
  C   C43       1.0  0.81207  0.84738  0.22331  1.0000
  C   C44       1.0  0.84713  0.88151  0.29279  1.0000
  H   H21       1.0  0.79360  0.91633  0.25353  1.0000
  O   O11       1.0  0.85723  0.91377  0.32828  1.0000
  H   H22       1.0  0.92026  0.02516  0.45125  1.0000
  C   C45       1.0  0.81510  0.88495  0.25658  1.0000
  C   C46       1.0  0.18885  0.84780  0.77579  1.0000
  C   C47       1.0  0.15420  0.88364  0.70703  1.0000
  H   H23       1.0  0.21235  0.91417  0.74360  1.0000
  O   O12       1.0  0.14518  0.91623  0.67161  1.0000
  C   C48       1.0  0.18788  0.88485  0.74194  1.0000
  H   H24       1.0  0.96872  0.86250  0.40933  1.0000
  C   C49       1.0  0.81032  0.77397  0.15209  1.0000
  C   C50       1.0  0.84709  0.70654  0.11617  1.0000
  H   H25       1.0  0.78809  0.74100  0.08523  1.0000
  O   O13       1.0  0.85721  0.67136  0.08359  1.0000
  C   C51       1.0  0.81237  0.74018  0.11485  1.0000
  H   H26       1.0  0.02542  0.39314  0.12588  1.0000
  C   C52       1.0  0.10175  0.41406  0.03601  1.0000
  C   C53       1.0  0.07771  0.45055  0.01360  1.0000
  C   C54       1.0  0.18786  0.22074  0.15111  1.0000
  C   C55       1.0  0.15343  0.28869  0.11423  1.0000
  H   H27       1.0  0.21176  0.25246  0.08455  1.0000
  O   O14       1.0  0.14537  0.32434  0.08173  1.0000
  H   H28       1.0  0.09244  0.46618  0.98186  1.0000
  C   C56       1.0  0.18697  0.25396  0.11353  1.0000
  C   C57       1.0  0.90753  0.41093  0.96480  1.0000
  C   C58       1.0  0.93068  0.44763  0.98814  1.0000
  C   C59       1.0  0.81306  0.22517  0.84695  1.0000
  C   C60       1.0  0.85106  0.29166  0.88342  1.0000
  H   H29       1.0  0.78600  0.26419  0.90816  1.0000
  O   O15       1.0  0.85945  0.32868  0.91433  1.0000
  H   H30       1.0  0.91483  0.46351  0.01926  1.0000
  C   C61       1.0  0.81380  0.26089  0.88227  1.0000
  C   C62       1.0  0.18785  0.77472  0.84695  1.0000
  C   C63       1.0  0.15191  0.70577  0.88029  1.0000
  H   H31       1.0  0.21013  0.74016  0.91272  1.0000
  O   O16       1.0  0.14283  0.66944  0.91156  1.0000
  C   C64       1.0  0.18602  0.73995  0.88299  1.0000
  H   H32       1.0  0.98756  0.38910  0.87834  1.0000
  C   C65       1.0  0.77473  0.15421  0.81062  1.0000
  C   C66       1.0  0.70745  0.11930  0.84793  1.0000
  H   H33       1.0  0.73868  0.08996  0.78621  1.0000
  O   O17       1.0  0.67115  0.08811  0.85706  1.0000
  C   C67       1.0  0.73994  0.11821  0.81211  1.0000
  H   H34       1.0  0.39488  0.12659  0.02481  1.0000
  C   C68       1.0  0.41454  0.03430  0.09886  1.0000
  C   C69       1.0  0.45026  0.01199  0.07373  1.0000
  C   C70       1.0  0.22346  0.14927  0.18860  1.0000
  C   C71       1.0  0.29225  0.11398  0.15459  1.0000
  H   H35       1.0  0.25958  0.08669  0.21642  1.0000
  O   O18       1.0  0.32927  0.08309  0.14754  1.0000
  H   H36       1.0  0.46509  0.97936  0.08720  1.0000
  C   C72       1.0  0.25862  0.11369  0.18935  1.0000
  C   C73       1.0  0.40881  0.96418  0.90701  1.0000
  C   C74       1.0  0.44554  0.98847  0.92892  1.0000
  C   C75       1.0  0.22384  0.84808  0.81374  1.0000
  C   C76       1.0  0.29040  0.88339  0.85239  1.0000
  H   H37       1.0  0.26003  0.91241  0.79017  1.0000
  O   O19       1.0  0.32660  0.91459  0.86176  1.0000
  H   H38       1.0  0.45800  0.02141  0.91376  1.0000
  C   C77       1.0  0.25833  0.88431  0.81605  1.0000
  C   C78       1.0  0.77671  0.84831  0.18575  1.0000
  C   C79       1.0  0.70951  0.88433  0.14923  1.0000
  H   H39       1.0  0.74344  0.91406  0.20950  1.0000
  O   O20       1.0  0.67392  0.91641  0.14041  1.0000
  C   C80       1.0  0.74325  0.88543  0.18403  1.0000
  H   H40       1.0  0.39864  0.87246  0.98376  1.0000
  C   C81       1.0  0.15513  0.81041  0.77296  1.0000
  C   C82       1.0  0.12146  0.84680  0.70406  1.0000
  H   H41       1.0  0.09561  0.78227  0.73198  1.0000
  O   O21       1.0  0.09073  0.85517  0.66695  1.0000
  C   C83       1.0  0.12151  0.81010  0.73570  1.0000
  H   H42       1.0  0.12434  0.02025  0.39563  1.0000
  C   C84       1.0  0.03473  0.09735  0.41344  1.0000
  C   C85       1.0  0.01096  0.07323  0.44901  1.0000
  C   C86       1.0  0.15269  0.18725  0.22489  1.0000
  C   C87       1.0  0.11679  0.15271  0.29351  1.0000
  H   H43       1.0  0.09050  0.21514  0.26125  1.0000
  O   O22       1.0  0.08572  0.14540  0.33050  1.0000
  H   H44       1.0  0.97892  0.08807  0.46354  1.0000
  C   C88       1.0  0.11727  0.18801  0.26028  1.0000
  C   C89       1.0  0.95769  0.89803  0.41880  1.0000
  C   C90       1.0  0.98254  0.92308  0.45335  1.0000
  C   C91       1.0  0.84334  0.80814  0.22703  1.0000
  C   C92       1.0  0.87602  0.84190  0.29787  1.0000
  H   H45       1.0  0.89794  0.77528  0.27104  1.0000
  O   O23       1.0  0.90480  0.84788  0.33705  1.0000
  H   H46       1.0  0.01279  0.90679  0.47014  1.0000
  C   C93       1.0  0.87488  0.80526  0.26599  1.0000
  C   C94       1.0  0.84745  0.18831  0.77448  1.0000
  C   C95       1.0  0.87843  0.15504  0.70293  1.0000
  H   H47       1.0  0.91083  0.21320  0.73789  1.0000
  O   O24       1.0  0.90818  0.14726  0.66507  1.0000
  C   C96       1.0  0.88198  0.18817  0.73828  1.0000
  H   H48       1.0  0.87650  0.98119  0.39019  1.0000
  B   B1        1.0  0.65003  0.89834  0.10066  1.0000
  B   B2        1.0  0.35209  0.09956  0.10667  1.0000
  C   C97       1.0  0.39372  0.07596  0.08182  1.0000
  C   C98       1.0  0.46674  0.03054  0.03085  1.0000
  B   B3        1.0  0.34866  0.89732  0.90276  1.0000
  C   C99       1.0  0.39081  0.92200  0.92618  1.0000
  C   C100      1.0  0.46592  0.97147  0.97079  1.0000
  B   B4        1.0  0.64895  0.10588  0.89779  1.0000
  B   B5        1.0  0.10301  0.64644  0.89301  1.0000
  B   B6        1.0  0.10727  0.34996  0.10021  1.0000
  C   C101      1.0  0.08344  0.39241  0.07674  1.0000
  C   C102      1.0  0.03429  0.46652  0.03079  1.0000
  B   B7        1.0  0.90294  0.34753  0.90033  1.0000
  C   C103      1.0  0.92737  0.38914  0.92480  1.0000
  C   C104      1.0  0.97432  0.46403  0.97208  1.0000
  B   B8        1.0  0.89727  0.64846  0.10165  1.0000
  B   B9        1.0  0.88971  0.10731  0.64185  1.0000
  B   B10       1.0  0.10074  0.10334  0.35202  1.0000
  C   C105      1.0  0.07596  0.07885  0.39334  1.0000
  C   C106      1.0  0.02749  0.02977  0.46589  1.0000
  B   B11       1.0  0.89358  0.89291  0.35475  1.0000
  C   C107      1.0  0.91892  0.91815  0.39548  1.0000
  C   C108      1.0  0.96903  0.96891  0.46624  1.0000
  B   B12       1.0  0.10527  0.89865  0.64788  1.0000
  C   C109      1.0  0.50077  0.00199  0.99956  1.0000
  C   C110      1.0  0.00336  0.49988  0.00110  1.0000
  C   C111      1.0  0.99809  0.99990  0.50047  1.0000
  C   C112      1.0  0.97221  0.57766  0.09812  1.0000
  C   C113      1.0  0.93416  0.60425  0.08197  1.0000
  C  Sn1       1.0  0.91322  0.59385  0.03843  1.0000
  C  Sn2       1.0  0.93077  0.55609  0.01063  1.0000
  C   C114      1.0  0.96883  0.52967  0.02712  1.0000
  C   C115      1.0  0.98953  0.54040  0.07073  1.0000
  H   H49       1.0  0.98821  0.58594  0.13187  1.0000
  O  Te1       1.0  0.87525  0.62078  0.02282  1.0000
  O  Te2       1.0  0.91322  0.54744  0.96699  1.0000
  H   H50       1.0  0.01897  0.51978  0.08324  1.0000
  Mg  Mg1       1.0  0.86220  0.59442  0.96092  1.0000
  C   C116      1.0  0.55939  0.01707  0.91568  1.0000
  C   C117      1.0  0.53899  0.02655  0.95956  1.0000
  C  Sn3       1.0  0.55145  0.06718  0.98474  1.0000
  C  Sn4       1.0  0.58495  0.09884  0.96553  1.0000
  C   C118      1.0  0.60514  0.08905  0.92158  1.0000
  C   C119      1.0  0.59243  0.04829  0.89670  1.0000
  H   H51       1.0  0.55133  0.98554  0.89641  1.0000
  O  Te3       1.0  0.52801  0.07359  0.02854  1.0000
  O  Te4       1.0  0.59803  0.13971  0.98993  1.0000
  H   H52       1.0  0.60821  0.04097  0.86271  1.0000
  Mg  Mg2       1.0  0.55729  0.13394  0.04835  1.0000
  C   C120      1.0  0.01483  0.55709  0.91567  1.0000
  C   C121      1.0  0.02803  0.53529  0.95792  1.0000
  C  Sn5       1.0  0.06749  0.55109  0.98284  1.0000
  C  Sn6       1.0  0.09415  0.58944  0.96505  1.0000
  C   C122      1.0  0.08064  0.61103  0.92277  1.0000
  C   C123      1.0  0.04110  0.59493  0.89811  1.0000
  H   H53       1.0  0.98423  0.54466  0.89661  1.0000
  O  Te5       1.0  0.07748  0.52637  0.02499  1.0000
  O  Te6       1.0  0.13373  0.60595  0.98925  1.0000
  H   H54       1.0  0.03087  0.61184  0.86541  1.0000
  Mg  Mg3       1.0  0.13424  0.56163  0.04515  1.0000
  C   C124      1.0  0.97118  0.09483  0.58083  1.0000
  C   C125      1.0  0.92521  0.08773  0.59649  1.0000
  C  Sn7       1.0  0.89966  0.04838  0.58129  1.0000
  C  Sn8       1.0  0.92061  0.01557  0.54983  1.0000
  C   C126      1.0  0.96663  0.02296  0.53439  1.0000
  C   C127      1.0  0.99188  0.06248  0.54982  1.0000
  H   H55       1.0  0.99072  0.12539  0.59278  1.0000
  O  Te7       1.0  0.85377  0.04183  0.59727  1.0000
  O  Te8       1.0  0.89766  0.97592  0.53410  1.0000
  H   H56       1.0  0.02748  0.06794  0.53771  1.0000
  Mg  Mg4       1.0  0.83610  0.98239  0.56581  1.0000
  C   C128      1.0  0.09688  0.97456  0.57735  1.0000
  C   C129      1.0  0.08323  0.93638  0.60531  1.0000
  C  Sn9       1.0  0.04042  0.91366  0.59694  1.0000
  C  Sn10      1.0  0.01080  0.92953  0.55985  1.0000
  C   C130      1.0  0.02480  0.96775  0.53204  1.0000
  C   C131      1.0  0.06770  0.99023  0.54074  1.0000
  H   H57       1.0  0.13009  0.99195  0.58405  1.0000
  O  Te9       1.0  0.02731  0.87557  0.62523  1.0000
  O  Te10      1.0  0.96784  0.90746  0.55070  1.0000
  H   H58       1.0  0.07649  0.01978  0.51906  1.0000
  Mg  Mg5       1.0  0.96541  0.85703  0.59895  1.0000
  C   C132      1.0  0.56330  0.92053  0.00982  1.0000
  C   C133      1.0  0.53883  0.96095  0.02363  1.0000
  C  Sn11      1.0  0.55167  0.98515  0.06479  1.0000
  C  Sn12      1.0  0.58973  0.96850  0.09256  1.0000
  C   C134      1.0  0.61401  0.92805  0.07842  1.0000
  C   C135      1.0  0.60086  0.90409  0.03717  1.0000
  H   H59       1.0  0.55587  0.90453  0.97789  1.0000
  O  Te11      1.0  0.52504  0.02546  0.07809  1.0000
  O  Te12      1.0  0.60330  0.99202  0.13385  1.0000
  H   H60       1.0  0.61983  0.87282  0.02647  1.0000
  Mg  Mg6       1.0  0.55682  0.04533  0.13728  1.0000
