data_image0
_chemical_formula_structural       C2HOC3HOC3HOC3HOC3HOC3HOC3HOC3HOC3HOC3HOC3HOC3HOC3HOC3HOC3HOC3HOC3HOC3HOC3HOC3HOC3HOC3HOC3HOC3HOCB12C5Sn2C2HTe2HMgC2Sn2C2HTe2HMgC2Sn2C2HTe2HMgC2Sn2C2HTe2HMgC2Sn2C2HTe2HMgC2Sn2C2HTe2HMgC2Sn2C2HTe2HMgC2Sn2C2HTe2HMgC2Sn2C2HTe2HMgC2Sn2C2HTe2HMgC2Sn2C2HTe2HMgC2Sn2C2HTe2HMg
_chemical_formula_sum              "C123 H48 O24 B12 Sn24 Te24 Mg12"
_cell_length_a       28.4777
_cell_length_b       28.3457
_cell_length_c       28.2805
_cell_angle_alpha    90.1447
_cell_angle_beta     90.1567
_cell_angle_gamma    90.1029

_symmetry_space_group_name_H-M    'P1'
_space_group_IT_number       1

loop_
  _space_group_symop_operation_xyz
  'x, y, z'

loop_
  _atom_site_type_symbol
  _atom_site_label
  _atom_site_symmetry_multiplicity
  _atom_site_fract_x
  _atom_site_fract_y
  _atom_site_fract_z
  _atom_site_occupancy
  C   C1        1.0  0.77477  0.81113  0.15148  1.0000
  C   C2        1.0  0.70702  0.84749  0.11623  1.0000
  H   H1        1.0  0.73553  0.78293  0.09058  1.0000
  O   O1        1.0  0.66950  0.85514  0.08582  1.0000
  C   C3        1.0  0.73870  0.81095  0.11658  1.0000
  C   C4        1.0  0.22387  0.18415  0.15216  1.0000
  C   C5        1.0  0.29285  0.14848  0.11925  1.0000
  H   H2        1.0  0.26144  0.20960  0.08941  1.0000
  O   O2        1.0  0.33033  0.14053  0.08928  1.0000
  C   C6        1.0  0.25964  0.18343  0.11724  1.0000
  C   C7        1.0  0.22354  0.81178  0.84880  1.0000
  C   C8        1.0  0.29025  0.84787  0.88670  1.0000
  H   H3        1.0  0.25890  0.78466  0.91227  1.0000
  O   O3        1.0  0.32644  0.85587  0.91872  1.0000
  C   C9        1.0  0.25778  0.81198  0.88554  1.0000
  C   C10       1.0  0.77553  0.18997  0.84636  1.0000
  C   C11       1.0  0.70757  0.15495  0.88229  1.0000
  H   H4        1.0  0.74032  0.21664  0.90997  1.0000
  O   O4        1.0  0.67121  0.14736  0.91388  1.0000
  C   C12       1.0  0.74076  0.19014  0.88231  1.0000
  C   C13       1.0  0.15431  0.77368  0.80920  1.0000
  C   C14       1.0  0.11910  0.70452  0.84331  1.0000
  H   H5        1.0  0.09298  0.73608  0.78032  1.0000
  O   O5        1.0  0.08834  0.66710  0.85025  1.0000
  C   C15       1.0  0.11945  0.73765  0.80792  1.0000
  C   C16       1.0  0.15354  0.22322  0.18789  1.0000
  C   C17       1.0  0.12090  0.29214  0.15110  1.0000
  H   H6        1.0  0.09372  0.26389  0.21514  1.0000
  O   O6        1.0  0.09205  0.33058  0.14324  1.0000
  C   C18       1.0  0.11996  0.26028  0.18765  1.0000
  C   C19       1.0  0.84988  0.22300  0.81274  1.0000
  C   C20       1.0  0.88817  0.28830  0.85120  1.0000
  H   H7        1.0  0.91754  0.25352  0.79140  1.0000
  O   O7        1.0  0.92130  0.32276  0.86142  1.0000
  C   C21       1.0  0.88835  0.25492  0.81589  1.0000
  C   C22       1.0  0.84392  0.77228  0.18978  1.0000
  C   C23       1.0  0.87992  0.70494  0.15308  1.0000
  H   H8        1.0  0.90616  0.73524  0.21675  1.0000
  O   O8        1.0  0.91158  0.66879  0.14490  1.0000
  C   C24       1.0  0.87919  0.73688  0.18970  1.0000
  C   C25       1.0  0.80995  0.15463  0.77313  1.0000
  C   C26       1.0  0.84178  0.12206  0.70165  1.0000
  H   H9        1.0  0.77941  0.09537  0.73331  1.0000
  O   O9        1.0  0.84764  0.09245  0.66309  1.0000
  C   C27       1.0  0.80739  0.12128  0.73560  1.0000
  C   C28       1.0  0.18687  0.15029  0.22474  1.0000
  C   C29       1.0  0.15009  0.11644  0.29304  1.0000
  H   H10       1.0  0.20962  0.08534  0.26026  1.0000
  O   O10       1.0  0.14079  0.08530  0.32940  1.0000
  C   C30       1.0  0.18494  0.11441  0.25967  1.0000
  C   C31       1.0  0.81207  0.84738  0.22331  1.0000
  C   C32       1.0  0.84713  0.88151  0.29279  1.0000
  H   H11       1.0  0.79360  0.91633  0.25353  1.0000
  O   O11       1.0  0.85723  0.91377  0.32828  1.0000
  C   C33       1.0  0.81510  0.88495  0.25658  1.0000
  C   C34       1.0  0.18885  0.84780  0.77579  1.0000
  C   C35       1.0  0.15420  0.88364  0.70703  1.0000
  H   H12       1.0  0.21235  0.91417  0.74360  1.0000
  O   O12       1.0  0.14518  0.91623  0.67161  1.0000
  C   C36       1.0  0.18788  0.88485  0.74194  1.0000
  C   C37       1.0  0.81032  0.77397  0.15209  1.0000
  C   C38       1.0  0.84709  0.70654  0.11617  1.0000
  H   H13       1.0  0.78809  0.74100  0.08523  1.0000
  O   O13       1.0  0.85721  0.67136  0.08359  1.0000
  C   C39       1.0  0.81237  0.74018  0.11485  1.0000
  C   C40       1.0  0.18786  0.22074  0.15111  1.0000
  C   C41       1.0  0.15343  0.28869  0.11423  1.0000
  H   H14       1.0  0.21176  0.25246  0.08455  1.0000
  O   O14       1.0  0.14537  0.32434  0.08173  1.0000
  C   C42       1.0  0.18697  0.25396  0.11353  1.0000
  C   C43       1.0  0.81306  0.22517  0.84695  1.0000
  C   C44       1.0  0.85106  0.29166  0.88342  1.0000
  H   H15       1.0  0.78600  0.26419  0.90816  1.0000
  O   O15       1.0  0.85945  0.32868  0.91433  1.0000
  C   C45       1.0  0.81380  0.26089  0.88227  1.0000
  C   C46       1.0  0.18785  0.77472  0.84695  1.0000
  C   C47       1.0  0.15191  0.70577  0.88029  1.0000
  H   H16       1.0  0.21013  0.74016  0.91272  1.0000
  O   O16       1.0  0.14283  0.66944  0.91156  1.0000
  C   C48       1.0  0.18602  0.73995  0.88299  1.0000
  C   C49       1.0  0.77473  0.15421  0.81062  1.0000
  C   C50       1.0  0.70745  0.11930  0.84793  1.0000
  H   H17       1.0  0.73868  0.08996  0.78621  1.0000
  O   O17       1.0  0.67115  0.08811  0.85706  1.0000
  C   C51       1.0  0.73994  0.11821  0.81211  1.0000
  C   C52       1.0  0.22346  0.14927  0.18860  1.0000
  C   C53       1.0  0.29225  0.11398  0.15459  1.0000
  H   H18       1.0  0.25958  0.08669  0.21642  1.0000
  O   O18       1.0  0.32927  0.08309  0.14754  1.0000
  C   C54       1.0  0.25862  0.11369  0.18935  1.0000
  C   C55       1.0  0.22384  0.84808  0.81374  1.0000
  C   C56       1.0  0.29040  0.88339  0.85239  1.0000
  H   H19       1.0  0.26003  0.91241  0.79017  1.0000
  O   O19       1.0  0.32660  0.91459  0.86176  1.0000
  C   C57       1.0  0.25833  0.88431  0.81605  1.0000
  C   C58       1.0  0.77671  0.84831  0.18575  1.0000
  C   C59       1.0  0.70951  0.88433  0.14923  1.0000
  H   H20       1.0  0.74344  0.91406  0.20950  1.0000
  O   O20       1.0  0.67392  0.91641  0.14041  1.0000
  C   C60       1.0  0.74325  0.88543  0.18403  1.0000
  C   C61       1.0  0.15513  0.81041  0.77296  1.0000
  C   C62       1.0  0.12146  0.84680  0.70406  1.0000
  H   H21       1.0  0.09561  0.78227  0.73198  1.0000
  O   O21       1.0  0.09073  0.85517  0.66695  1.0000
  C   C63       1.0  0.12151  0.81010  0.73570  1.0000
  C   C64       1.0  0.15269  0.18725  0.22489  1.0000
  C   C65       1.0  0.11679  0.15271  0.29351  1.0000
  H   H22       1.0  0.09050  0.21514  0.26125  1.0000
  O   O22       1.0  0.08572  0.14540  0.33050  1.0000
  C   C66       1.0  0.11727  0.18801  0.26028  1.0000
  C   C67       1.0  0.84334  0.80814  0.22703  1.0000
  C   C68       1.0  0.87602  0.84190  0.29787  1.0000
  H   H23       1.0  0.89794  0.77528  0.27104  1.0000
  O   O23       1.0  0.90480  0.84788  0.33705  1.0000
  C   C69       1.0  0.87488  0.80526  0.26599  1.0000
  C   C70       1.0  0.84745  0.18831  0.77448  1.0000
  C   C71       1.0  0.87843  0.15504  0.70293  1.0000
  H   H24       1.0  0.91083  0.21320  0.73789  1.0000
  O   O24       1.0  0.90818  0.14726  0.66507  1.0000
  C   C72       1.0  0.88198  0.18817  0.73828  1.0000
  B   B1        1.0  0.65003  0.89834  0.10066  1.0000
  B   B2        1.0  0.35209  0.09956  0.10667  1.0000
  B   B3        1.0  0.34866  0.89732  0.90276  1.0000
  B   B4        1.0  0.64895  0.10588  0.89779  1.0000
  B   B5        1.0  0.10301  0.64644  0.89301  1.0000
  B   B6        1.0  0.10727  0.34996  0.10021  1.0000
  B   B7        1.0  0.90294  0.34753  0.90033  1.0000
  B   B8        1.0  0.89727  0.64846  0.10165  1.0000
  B   B9        1.0  0.88971  0.10731  0.64185  1.0000
  B   B10       1.0  0.10074  0.10334  0.35202  1.0000
  B   B11       1.0  0.89358  0.89291  0.35475  1.0000
  B   B12       1.0  0.10527  0.89865  0.64788  1.0000
  C   C73       1.0  0.50077  0.00199  0.99956  1.0000
  C   C74       1.0  0.00336  0.49988  0.00110  1.0000
  C   C75       1.0  0.99809  0.99990  0.50047  1.0000
  C   C76       1.0  0.58433  0.97747  0.09263  1.0000
  C   C77       1.0  0.60401  0.93348  0.08249  1.0000
  C  Sn1       1.0  0.59063  0.90887  0.04174  1.0000
  C  Sn2       1.0  0.55693  0.92877  0.01064  1.0000
  C   C78       1.0  0.53747  0.97282  0.02108  1.0000
  C   C79       1.0  0.55110  0.99714  0.06195  1.0000
  H   H25       1.0  0.59489  0.99630  0.12424  1.0000
  O  Te1       1.0  0.61062  0.86495  0.03216  1.0000
  O  Te2       1.0  0.54566  0.90747  0.96966  1.0000
  H   H26       1.0  0.53410  0.03121  0.06978  1.0000
  Mg  Mg1       1.0  0.58293  0.84862  0.97192  1.0000
  C   C80       1.0  0.42214  0.02364  0.09732  1.0000
  C   C81       1.0  0.40020  0.06679  0.08838  1.0000
  C  Sn3       1.0  0.41066  0.09201  0.04735  1.0000
  C  Sn4       1.0  0.44370  0.07361  0.01472  1.0000
  C   C82       1.0  0.46543  0.03040  0.02396  1.0000
  C   C83       1.0  0.45471  0.00546  0.06513  1.0000
  H   H27       1.0  0.41383  0.00433  0.12916  1.0000
  O  Te3       1.0  0.38844  0.13507  0.03899  1.0000
  O  Te4       1.0  0.45751  0.10061  0.97342  1.0000
  H   H28       1.0  0.47347  0.97204  0.07202  1.0000
  Mg  Mg2       1.0  0.41797  0.15784  0.97773  1.0000
  C   C84       1.0  0.43777  0.98702  0.91831  1.0000
  C   C85       1.0  0.45997  0.97796  0.96146  1.0000
  C  Sn5       1.0  0.44864  0.93752  0.98720  1.0000
  C  Sn6       1.0  0.41444  0.90563  0.96931  1.0000
  C   C86       1.0  0.39246  0.91500  0.92609  1.0000
  C   C87       1.0  0.40405  0.95558  0.90063  1.0000
  H   H29       1.0  0.44497  0.01840  0.89860  1.0000
  O  Te5       1.0  0.46842  0.92648  0.03026  1.0000
  O  Te6       1.0  0.40246  0.86494  0.99431  1.0000
  H   H30       1.0  0.38688  0.96257  0.86721  1.0000
  Mg  Mg3       1.0  0.44010  0.86624  0.05131  1.0000
  C   C88       1.0  0.55939  0.01707  0.91568  1.0000
  C   C89       1.0  0.53899  0.02655  0.95956  1.0000
  C  Sn7       1.0  0.55145  0.06718  0.98474  1.0000
  C  Sn8       1.0  0.58495  0.09884  0.96553  1.0000
  C   C90       1.0  0.60514  0.08905  0.92158  1.0000
  C   C91       1.0  0.59243  0.04829  0.89670  1.0000
  H   H31       1.0  0.55133  0.98554  0.89641  1.0000
  O  Te7       1.0  0.52801  0.07359  0.02854  1.0000
  O  Te8       1.0  0.59803  0.13971  0.98993  1.0000
  H   H32       1.0  0.60821  0.04097  0.86271  1.0000
  Mg  Mg4       1.0  0.55729  0.13394  0.04835  1.0000
  C   C92       1.0  0.02873  0.57445  0.90068  1.0000
  C   C93       1.0  0.06674  0.60269  0.91423  1.0000
  C  Sn9       1.0  0.08961  0.59473  0.95724  1.0000
  C  Sn10      1.0  0.07407  0.55778  0.98715  1.0000
  C   C94       1.0  0.03603  0.52970  0.97325  1.0000
  C   C95       1.0  0.01338  0.53798  0.93014  1.0000
  H   H33       1.0  0.01122  0.58083  0.86732  1.0000
  O  Te9       1.0  0.12753  0.62329  0.97025  1.0000
  O  Te10      1.0  0.09359  0.54652  0.03031  1.0000
  H   H34       1.0  0.98397  0.51609  0.91964  1.0000
  Mg  Mg5       1.0  0.14368  0.59501  0.03250  1.0000
  C   C96       1.0  0.01622  0.43595  0.08098  1.0000
  C   C97       1.0  0.02977  0.46339  0.04235  1.0000
  C  Sn11      1.0  0.07175  0.45387  0.01875  1.0000
  C  Sn12      1.0  0.10060  0.41613  0.03417  1.0000
  C   C98       1.0  0.08671  0.38886  0.07283  1.0000
  C   C99       1.0  0.04465  0.39871  0.09620  1.0000
  H   H35       1.0  0.98366  0.44355  0.09905  1.0000
  O  Te11      1.0  0.08749  0.48417  0.98023  1.0000
  O  Te12      1.0  0.14272  0.40583  0.01121  1.0000
  H   H36       1.0  0.03415  0.37744  0.12609  1.0000
  Mg  Mg6       1.0  0.14810  0.45629  0.96048  1.0000
  C   C100      1.0  0.90826  0.41889  0.97536  1.0000
  C   C101      1.0  0.92033  0.39566  0.93349  1.0000
  C  Sn13      1.0  0.96278  0.40580  0.91103  1.0000
  C  Sn14      1.0  0.99366  0.43985  0.93094  1.0000
  C   C102      1.0  0.98128  0.46287  0.97285  1.0000
  C   C103      1.0  0.93870  0.45246  0.99503  1.0000
  H   H37       1.0  0.87533  0.41082  0.99254  1.0000
  O  Te13      1.0  0.97428  0.38227  0.86921  1.0000
  O  Te14      1.0  0.03632  0.45065  0.90923  1.0000
  H   H38       1.0  0.92666  0.46791  0.02746  1.0000
  Mg  Mg7       1.0  0.03636  0.40918  0.85279  1.0000
  C   C104      1.0  0.92199  0.56190  0.01028  1.0000
  C   C105      1.0  0.96420  0.54032  0.02315  1.0000
  C  Sn15      1.0  0.98562  0.55131  0.06631  1.0000
  C  Sn16      1.0  0.96430  0.58452  0.09708  1.0000
  C   C106      1.0  0.92206  0.60590  0.08389  1.0000
  C   C107      1.0  0.90093  0.59465  0.04062  1.0000
  H   H39       1.0  0.90835  0.55571  0.97681  1.0000
  O  Te15      1.0  0.02780  0.52943  0.07861  1.0000
  O  Te16      1.0  0.98495  0.59614  0.14043  1.0000
  H   H40       1.0  0.86824  0.61135  0.03068  1.0000
  Mg  Mg8       1.0  0.04240  0.55691  0.14143  1.0000
  C   C108      1.0  0.97118  0.09483  0.58083  1.0000
  C   C109      1.0  0.92521  0.08773  0.59649  1.0000
  C  Sn17      1.0  0.89966  0.04838  0.58129  1.0000
  C  Sn18      1.0  0.92061  0.01557  0.54983  1.0000
  C   C110      1.0  0.96663  0.02296  0.53439  1.0000
  C   C111      1.0  0.99188  0.06248  0.54982  1.0000
  H   H41       1.0  0.99072  0.12539  0.59278  1.0000
  O  Te17      1.0  0.85377  0.04183  0.59727  1.0000
  O  Te18      1.0  0.89766  0.97592  0.53410  1.0000
  H   H42       1.0  0.02748  0.06794  0.53771  1.0000
  Mg  Mg9       1.0  0.83610  0.98239  0.56581  1.0000
  C   C112      1.0  0.01241  0.08432  0.44200  1.0000
  C   C113      1.0  0.02117  0.03963  0.46078  1.0000
  C  Sn19      1.0  0.06068  0.01415  0.44661  1.0000
  C  Sn20      1.0  0.09194  0.03388  0.41301  1.0000
  C   C114      1.0  0.08288  0.07863  0.39446  1.0000
  C   C115      1.0  0.04323  0.10381  0.40888  1.0000
  H   H43       1.0  0.98175  0.10382  0.45317  1.0000
  O  Te19      1.0  0.07069  0.96954  0.46571  1.0000
  O  Te20      1.0  0.13170  0.00919  0.39824  1.0000
  H   H44       1.0  0.03647  0.13842  0.39435  1.0000
  Mg  Mg10      1.0  0.12959  0.94962  0.43445  1.0000
  C   C116      1.0  0.96830  0.89886  0.42661  1.0000
  C   C117      1.0  0.92717  0.91124  0.40264  1.0000
  C  Sn21      1.0  0.90738  0.95585  0.40913  1.0000
  C  Sn22      1.0  0.92927  0.98860  0.44020  1.0000
  C   C118      1.0  0.97043  0.97589  0.46398  1.0000
  C   C119      1.0  0.98992  0.93115  0.45724  1.0000
  H   H45       1.0  0.98340  0.86426  0.42137  1.0000
  O  Te21      1.0  0.86626  0.96764  0.38492  1.0000
  O  Te22      1.0  0.90846  0.03343  0.44732  1.0000
  H   H46       1.0  0.02179  0.92159  0.47578  1.0000
  Mg  Mg11      1.0  0.85198  0.03300  0.40634  1.0000
  C   C120      1.0  0.01101  0.92067  0.56537  1.0000
  C   C121      1.0  0.02103  0.96350  0.54319  1.0000
  C  Sn23      1.0  0.06339  0.98680  0.55227  1.0000
  C  Sn24      1.0  0.09627  0.96674  0.58416  1.0000
  C   C122      1.0  0.08593  0.92385  0.60615  1.0000
  C   C123      1.0  0.04342  0.90085  0.59681  1.0000
  H   H47       1.0  0.97813  0.90285  0.55813  1.0000
  O  Te23      1.0  0.07105  0.02958  0.52982  1.0000
  O  Te24      1.0  0.13888  0.98926  0.59387  1.0000
  H   H48       1.0  0.03569  0.86767  0.61397  1.0000
  Mg  Mg12      1.0  0.13392  0.04687  0.55455  1.0000
