data_image0
_chemical_formula_structural       C6H4BOC6H4BOBOC6H4BOBOC6H4BOBOC6H4BOBOC6H4BOC6H4BOBOC6H4BOC6H4BOC6H4BOBOC6H4BOC6H4BOBOBOBOC6H4BOBOC6H4BOC6H4BOBOBOC6H4BOBOBOC6H4BOBOBOBOBOC6H4BOC6H4BOBOC6H4BOBOC6H4BOBOBOBOC6H4BOBOC6H4BOC6H4BOSi12SnCSn2CSnTe4Mg2SnCSn2CSnTe4Mg2SnCSn2CSnTe4Mg2SnCSn2CSnTe4Mg2SnCSn2CSnTe4Mg2SnCSn2CSnTe4Mg2SnCSn2CSnTe4Mg2SnCSn2CSnTe4Mg2SnCSn2CSnTe4Mg2SnCSn2CSnTe4Mg2SnCSn2CSnTe4Mg2SnCSn2CSnTe4Mg2SnCSn2CSnTe4Mg2SnCSn2CSnTe4Mg2SnCSn2CSnTe4Mg2SnCSn2CSnTe4Mg2SnCSn2CSnTe4Mg2SnCSn2CSnTe4Mg2SnCSn2CSnTe4Mg2SnCSn2CSnTe4Mg2SnCSn2CSnTe4Mg2SnCSn2CSnTe4Mg2SnCSn2CSnTe4Mg2SnCSn2CSnTe4Mg2
_chemical_formula_sum              "C192 H96 B48 O48 Si12 Sn96 Te96 Mg48"
_cell_length_a       28.421
_cell_length_b       28.2516
_cell_length_c       28.4831
_cell_angle_alpha    89.9161
_cell_angle_beta     90.0782
_cell_angle_gamma    90.1925

_symmetry_space_group_name_H-M    'P1'
_space_group_IT_number       1

loop_
  _space_group_symop_operation_xyz
  'x, y, z'

loop_
  _atom_site_type_symbol
  _atom_site_label
  _atom_site_symmetry_multiplicity
  _atom_site_fract_x
  _atom_site_fract_y
  _atom_site_fract_z
  _atom_site_occupancy
  C   C1        1.0  0.33952  0.08063  0.19852  1.0000
  C   C2        1.0  0.33714  0.05280  0.23943  1.0000
  C   C3        1.0  0.30265  0.06372  0.27325  1.0000
  C   C4        1.0  0.27201  0.10159  0.26663  1.0000
  C   C5        1.0  0.27458  0.12965  0.22580  1.0000
  C   C6        1.0  0.30878  0.11853  0.19190  1.0000
  H   H1        1.0  0.36541  0.07226  0.17166  1.0000
  H   H2        1.0  0.29944  0.04209  0.30480  1.0000
  H   H3        1.0  0.24543  0.10971  0.29287  1.0000
  H   H4        1.0  0.31075  0.13966  0.15999  1.0000
  B   B1        1.0  0.24009  0.17118  0.21785  1.0000
  O   O1        1.0  0.20393  0.17960  0.24971  1.0000
  C   C7        1.0  0.84612  0.58584  0.70291  1.0000
  C   C8        1.0  0.83951  0.55314  0.73963  1.0000
  C   C9        1.0  0.80165  0.56026  0.77075  1.0000
  C   C10       1.0  0.77172  0.59892  0.76558  1.0000
  C   C11       1.0  0.77818  0.63158  0.72870  1.0000
  C   C12       1.0  0.81585  0.62428  0.69753  1.0000
  H   H5        1.0  0.87470  0.58076  0.67804  1.0000
  H   H6        1.0  0.79539  0.53486  0.79890  1.0000
  H   H7        1.0  0.74266  0.60387  0.78990  1.0000
  H   H8        1.0  0.82109  0.64916  0.66878  1.0000
  B   B2        1.0  0.74396  0.67358  0.72162  1.0000
  O   O2        1.0  0.70663  0.68056  0.75245  1.0000
  B   B3        1.0  0.25737  0.83109  0.71618  1.0000
  O   O3        1.0  0.29538  0.82355  0.74615  1.0000
  C   C13       1.0  0.65529  0.41515  0.20351  1.0000
  C   C14       1.0  0.66468  0.44765  0.23979  1.0000
  C   C15       1.0  0.70450  0.43994  0.26839  1.0000
  C   C16       1.0  0.73369  0.40107  0.26097  1.0000
  C   C17       1.0  0.72441  0.36867  0.22452  1.0000
  C   C18       1.0  0.68475  0.37646  0.19591  1.0000
  H   H9        1.0  0.62499  0.42065  0.18072  1.0000
  H   H10       1.0  0.71300  0.46499  0.29621  1.0000
  H   H11       1.0  0.76438  0.39562  0.28324  1.0000
  H   H12       1.0  0.67725  0.35190  0.16742  1.0000
  B   B4        1.0  0.75769  0.32624  0.21592  1.0000
  O   O4        1.0  0.79598  0.31912  0.24555  1.0000
  B   B5        1.0  0.76051  0.67353  0.28312  1.0000
  O   O5        1.0  0.79987  0.67957  0.25468  1.0000
  C   C19       1.0  0.15927  0.08452  0.80216  1.0000
  C   C20       1.0  0.16223  0.05608  0.76173  1.0000
  C   C21       1.0  0.19775  0.06662  0.72874  1.0000
  C   C22       1.0  0.22913  0.10398  0.73589  1.0000
  C   C23       1.0  0.22652  0.13213  0.77659  1.0000
  C   C24       1.0  0.19075  0.12196  0.80935  1.0000
  H   H13       1.0  0.13237  0.07702  0.82835  1.0000
  H   H14       1.0  0.20119  0.04484  0.69743  1.0000
  H   H15       1.0  0.25641  0.11147  0.71008  1.0000
  H   H16       1.0  0.18820  0.14336  0.84102  1.0000
  B   B6        1.0  0.26226  0.17290  0.78524  1.0000
  O   O6        1.0  0.29979  0.18070  0.75474  1.0000
  B   B7        1.0  0.73982  0.33104  0.78379  1.0000
  O   O7        1.0  0.70272  0.32366  0.75257  1.0000
  C   C25       1.0  0.34535  0.91651  0.29829  1.0000
  C   C26       1.0  0.33816  0.94832  0.26090  1.0000
  C   C27       1.0  0.29951  0.94036  0.23080  1.0000
  C   C28       1.0  0.26976  0.90157  0.23730  1.0000
  C   C29       1.0  0.27705  0.86964  0.27462  1.0000
  C   C30       1.0  0.31518  0.87798  0.30517  1.0000
  H   H17       1.0  0.37442  0.92243  0.32253  1.0000
  H   H18       1.0  0.29227  0.96523  0.20246  1.0000
  H   H19       1.0  0.24019  0.89573  0.21366  1.0000
  H   H20       1.0  0.32100  0.85393  0.33451  1.0000
  B   B8        1.0  0.24300  0.82733  0.28205  1.0000
  O   O8        1.0  0.20688  0.81884  0.24997  1.0000
  B   B9        1.0  0.21602  0.23929  0.17266  1.0000
  O   O9        1.0  0.24503  0.20012  0.17860  1.0000
  C   C31       1.0  0.69826  0.83911  0.58384  1.0000
  C   C32       1.0  0.73724  0.83353  0.55396  1.0000
  C   C33       1.0  0.76990  0.79748  0.56425  1.0000
  C   C34       1.0  0.76395  0.76838  0.60335  1.0000
  C   C35       1.0  0.72514  0.77423  0.63348  1.0000
  C   C36       1.0  0.69234  0.80991  0.62297  1.0000
  H   H21       1.0  0.67244  0.86645  0.57623  1.0000
  H   H22       1.0  0.79997  0.79204  0.54121  1.0000
  H   H23       1.0  0.78935  0.74068  0.61105  1.0000
  H   H24       1.0  0.66195  0.81443  0.64574  1.0000
  B   B10       1.0  0.71845  0.74112  0.67627  1.0000
  O   O10       1.0  0.74991  0.70425  0.68376  1.0000
  C   C37       1.0  0.70431  0.15432  0.91172  1.0000
  C   C38       1.0  0.73911  0.16395  0.94568  1.0000
  C   C39       1.0  0.76678  0.20512  0.94011  1.0000
  C   C40       1.0  0.75992  0.23541  0.90200  1.0000
  C   C41       1.0  0.72487  0.22599  0.86822  1.0000
  C   C42       1.0  0.69726  0.18487  0.87375  1.0000
  H   H25       1.0  0.68212  0.12304  0.91550  1.0000
  H   H26       1.0  0.79340  0.21393  0.96627  1.0000
  H   H27       1.0  0.78150  0.26708  0.89813  1.0000
  H   H28       1.0  0.66999  0.17710  0.84797  1.0000
  B   B11       1.0  0.71683  0.26067  0.82673  1.0000
  O   O11       1.0  0.74566  0.30025  0.82152  1.0000
  B   B12       1.0  0.21660  0.76044  0.32826  1.0000
  O   O12       1.0  0.24792  0.79768  0.32081  1.0000
  C   C43       1.0  0.30038  0.66294  0.58065  1.0000
  C   C44       1.0  0.26024  0.66589  0.55183  1.0000
  C   C45       1.0  0.22643  0.70082  0.56209  1.0000
  C   C46       1.0  0.23227  0.73126  0.60017  1.0000
  C   C47       1.0  0.27221  0.72798  0.62938  1.0000
  C   C48       1.0  0.30616  0.69339  0.61882  1.0000
  H   H29       1.0  0.32727  0.63671  0.57292  1.0000
  H   H30       1.0  0.19549  0.70444  0.53973  1.0000
  H   H31       1.0  0.20589  0.75807  0.60767  1.0000
  H   H32       1.0  0.33754  0.69086  0.64066  1.0000
  B   B13       1.0  0.27959  0.76195  0.67152  1.0000
  O   O13       1.0  0.24976  0.80019  0.67878  1.0000
  C   C49       1.0  0.79507  0.15464  0.08330  1.0000
  C   C50       1.0  0.75914  0.16336  0.05038  1.0000
  C   C51       1.0  0.72938  0.20248  0.05788  1.0000
  C   C52       1.0  0.73527  0.23164  0.09694  1.0000
  C   C53       1.0  0.77151  0.22313  0.12965  1.0000
  C   C54       1.0  0.80118  0.18407  0.12219  1.0000
  H   H33       1.0  0.81872  0.12488  0.07812  1.0000
  H   H34       1.0  0.70181  0.21043  0.03248  1.0000
  H   H35       1.0  0.71195  0.26164  0.10229  1.0000
  H   H36       1.0  0.82937  0.17719  0.14716  1.0000
  B   B14       1.0  0.77963  0.25690  0.17169  1.0000
  O   O14       1.0  0.74990  0.29528  0.17872  1.0000
  C   C55       1.0  0.80145  0.83895  0.42255  1.0000
  C   C56       1.0  0.76009  0.83487  0.44941  1.0000
  C   C57       1.0  0.72633  0.80080  0.43587  1.0000
  C   C58       1.0  0.73368  0.77208  0.39683  1.0000
  C   C59       1.0  0.77504  0.77618  0.36980  1.0000
  C   C60       1.0  0.80872  0.81023  0.38336  1.0000
  H   H37       1.0  0.82818  0.86477  0.43259  1.0000
  H   H38       1.0  0.69415  0.79665  0.45632  1.0000
  H   H39       1.0  0.70732  0.74590  0.38690  1.0000
  H   H40       1.0  0.84101  0.81379  0.36311  1.0000
  B   B15       1.0  0.78318  0.74306  0.32724  1.0000
  O   O15       1.0  0.75232  0.70553  0.31919  1.0000
  B   B16       1.0  0.28782  0.24010  0.83145  1.0000
  O   O16       1.0  0.25704  0.20244  0.82387  1.0000
  C   C61       1.0  0.08079  0.19832  0.34082  1.0000
  C   C62       1.0  0.05137  0.23795  0.33563  1.0000
  C   C63       1.0  0.06188  0.27050  0.29953  1.0000
  C   C64       1.0  0.10044  0.26394  0.27007  1.0000
  C   C65       1.0  0.13010  0.22437  0.27549  1.0000
  C   C66       1.0  0.11947  0.19169  0.31136  1.0000
  H   H41       1.0  0.07331  0.17247  0.36818  1.0000
  H   H42       1.0  0.03930  0.30116  0.29451  1.0000
  H   H43       1.0  0.10778  0.28961  0.24244  1.0000
  H   H44       1.0  0.14168  0.16066  0.31587  1.0000
  B   B17       1.0  0.17279  0.21691  0.24246  1.0000
  O   O17       1.0  0.18038  0.24767  0.20494  1.0000
  C   C67       1.0  0.58176  0.69938  0.84296  1.0000
  C   C68       1.0  0.55092  0.73743  0.83484  1.0000
  C   C69       1.0  0.56086  0.76834  0.79722  1.0000
  C   C70       1.0  0.60034  0.76166  0.76906  1.0000
  C   C71       1.0  0.63126  0.72360  0.77719  1.0000
  C   C72       1.0  0.62118  0.69249  0.81455  1.0000
  H   H45       1.0  0.57456  0.67477  0.87155  1.0000
  H   H46       1.0  0.53710  0.79757  0.78967  1.0000
  H   H47       1.0  0.60761  0.78588  0.74018  1.0000
  H   H48       1.0  0.64443  0.66260  0.82105  1.0000
  B   B18       1.0  0.67452  0.71687  0.74484  1.0000
  O   O18       1.0  0.68106  0.74752  0.70704  1.0000
  B   B19       1.0  0.83002  0.71799  0.26112  1.0000
  O   O19       1.0  0.82144  0.74986  0.29743  1.0000
  B   B20       1.0  0.33152  0.21758  0.76245  1.0000
  O   O20       1.0  0.32541  0.24738  0.80087  1.0000
  B   B21       1.0  0.67306  0.28473  0.75787  1.0000
  O   O21       1.0  0.68086  0.25278  0.79446  1.0000
  C   C73       1.0  0.08917  0.79328  0.15222  1.0000
  C   C74       1.0  0.05446  0.75937  0.16315  1.0000
  C   C75       1.0  0.05998  0.73242  0.20448  1.0000
  C   C76       1.0  0.09851  0.73951  0.23400  1.0000
  C   C77       1.0  0.13290  0.77397  0.22350  1.0000
  C   C78       1.0  0.12771  0.80042  0.18188  1.0000
  H   H49       1.0  0.08558  0.81469  0.12060  1.0000
  H   H50       1.0  0.03339  0.70623  0.21390  1.0000
  H   H51       1.0  0.10207  0.71863  0.26594  1.0000
  H   H52       1.0  0.15411  0.82700  0.17308  1.0000
  B   B22       1.0  0.17435  0.78275  0.25791  1.0000
  O   O22       1.0  0.17881  0.75439  0.29770  1.0000
  B   B23       1.0  0.32529  0.78520  0.73949  1.0000
  O   O23       1.0  0.31684  0.75445  0.70232  1.0000
  C   C79       1.0  0.91782  0.29963  0.33777  1.0000
  C   C80       1.0  0.94651  0.25931  0.33380  1.0000
  C   C81       1.0  0.93578  0.22626  0.29823  1.0000
  C   C82       1.0  0.89745  0.23297  0.26832  1.0000
  C   C83       1.0  0.86849  0.27316  0.27247  1.0000
  C   C84       1.0  0.87951  0.30635  0.30772  1.0000
  H   H53       1.0  0.92580  0.32603  0.36448  1.0000
  H   H54       1.0  0.95803  0.19524  0.29374  1.0000
  H   H55       1.0  0.88963  0.20697  0.24120  1.0000
  H   H56       1.0  0.85777  0.33781  0.31123  1.0000
  B   B24       1.0  0.82586  0.28075  0.23915  1.0000
  O   O24       1.0  0.81702  0.24952  0.20242  1.0000
  C   C85       1.0  0.33266  0.59341  0.45033  1.0000
  C   C86       1.0  0.30315  0.58774  0.48958  1.0000
  C   C87       1.0  0.31334  0.55112  0.52167  1.0000
  C   C88       1.0  0.35164  0.52126  0.51473  1.0000
  C   C89       1.0  0.38103  0.52670  0.47526  1.0000
  C   C90       1.0  0.37096  0.56341  0.44335  1.0000
  H   H57       1.0  0.32535  0.62132  0.42499  1.0000
  H   H58       1.0  0.29066  0.54578  0.55204  1.0000
  H   H59       1.0  0.35888  0.49302  0.53976  1.0000
  H   H60       1.0  0.39321  0.56791  0.41256  1.0000
  B   B25       1.0  0.42298  0.49282  0.46705  1.0000
  O   O25       1.0  0.43072  0.45511  0.49764  1.0000
  B   B26       1.0  0.92165  0.98915  0.96772  1.0000
  O   O26       1.0  0.92868  0.95050  0.99740  1.0000
  B   B27       1.0  0.08050  0.50891  0.96602  1.0000
  O   O27       1.0  0.07369  0.54761  0.99539  1.0000
  C   C91       1.0  0.66955  0.91021  0.44980  1.0000
  C   C92       1.0  0.69697  0.91291  0.49089  1.0000
  C   C93       1.0  0.68557  0.94781  0.52433  1.0000
  C   C94       1.0  0.64776  0.97833  0.51724  1.0000
  C   C95       1.0  0.61988  0.97514  0.47640  1.0000
  C   C96       1.0  0.63160  0.94070  0.44277  1.0000
  H   H61       1.0  0.67818  0.88417  0.42306  1.0000
  H   H62       1.0  0.70685  0.95135  0.55600  1.0000
  H   H63       1.0  0.63948  0.00519  0.54330  1.0000
  H   H64       1.0  0.61082  0.93826  0.41071  1.0000
  B   B28       1.0  0.57761  0.00875  0.46867  1.0000
  O   O28       1.0  0.56910  0.04548  0.50002  1.0000
  B   B29       1.0  0.92377  0.00496  0.53117  1.0000
  O   O29       1.0  0.93098  0.04237  0.50004  1.0000
  B   B30       1.0  0.42265  0.51090  0.03581  1.0000
  O   O30       1.0  0.43080  0.54774  0.00446  1.0000
  C   C97       1.0  0.66275  0.09502  0.04243  1.0000
  C   C98       1.0  0.69671  0.08487  0.00797  1.0000
  C   C99       1.0  0.69027  0.04404  0.98025  1.0000
  C   C100      1.0  0.65085  0.01504  0.98613  1.0000
  C   C101      1.0  0.61673  0.02531  0.02045  1.0000
  C   C102      1.0  0.62361  0.06566  0.04869  1.0000
  H   H65       1.0  0.66733  0.12592  0.06482  1.0000
  H   H66       1.0  0.71668  0.03467  0.95420  1.0000
  H   H67       1.0  0.64635  0.98373  0.96435  1.0000
  H   H68       1.0  0.59799  0.07378  0.07584  1.0000
  B   B31       1.0  0.57348  0.99245  0.02766  1.0000
  O   O31       1.0  0.56512  0.95466  0.99749  1.0000
  B   B32       1.0  0.07770  0.49011  0.53086  1.0000
  O   O32       1.0  0.06922  0.45254  0.50026  1.0000
  B   B33       1.0  0.49057  0.46896  0.42160  1.0000
  O   O33       1.0  0.45288  0.49955  0.42887  1.0000
  B   B34       1.0  0.99052  0.96691  0.92325  1.0000
  O   O34       1.0  0.95277  0.99728  0.93088  1.0000
  B   B35       1.0  0.50619  0.96854  0.07407  1.0000
  O   O35       1.0  0.54280  0.00006  0.06486  1.0000
  C   C103      1.0  0.91267  0.44887  0.66937  1.0000
  C   C104      1.0  0.91711  0.48968  0.69731  1.0000
  C   C105      1.0  0.95221  0.52305  0.68553  1.0000
  C   C106      1.0  0.98149  0.51595  0.64699  1.0000
  C   C107      1.0  0.97683  0.47521  0.61885  1.0000
  C   C108      1.0  0.94198  0.44184  0.63075  1.0000
  H   H69       1.0  0.88612  0.42241  0.67798  1.0000
  H   H70       1.0  0.95680  0.55465  0.70698  1.0000
  H   H71       1.0  0.00836  0.54209  0.63833  1.0000
  H   H72       1.0  0.93817  0.41005  0.60951  1.0000
  B   B36       1.0  0.00976  0.46696  0.57642  1.0000
  O   O36       1.0  0.04745  0.49749  0.56854  1.0000
  C   C109      1.0  0.90826  0.54624  0.83517  1.0000
  C   C110      1.0  0.91753  0.51092  0.80170  1.0000
  C   C111      1.0  0.95711  0.48174  0.80834  1.0000
  C   C112      1.0  0.98603  0.48728  0.84753  1.0000
  C   C113      1.0  0.97654  0.52233  0.88132  1.0000
  C   C114      1.0  0.93724  0.55176  0.87440  1.0000
  H   H73       1.0  0.87836  0.56972  0.83021  1.0000
  H   H74       1.0  0.96547  0.45485  0.78230  1.0000
  H   H75       1.0  0.01662  0.46467  0.85217  1.0000
  H   H76       1.0  0.92981  0.57937  0.89991  1.0000
  B   B37       1.0  0.00948  0.52913  0.92412  1.0000
  O   O37       1.0  0.04891  0.50045  0.92956  1.0000
  B   B38       1.0  0.51079  0.03361  0.42221  1.0000
  O   O38       1.0  0.54769  0.00238  0.43047  1.0000
  C   C115      1.0  0.08835  0.05255  0.66899  1.0000
  C   C116      1.0  0.08333  0.01344  0.69921  1.0000
  C   C117      1.0  0.04765  0.98010  0.68920  1.0000
  C   C118      1.0  0.01869  0.98531  0.64998  1.0000
  C   C119      1.0  0.02402  0.02426  0.61942  1.0000
  C   C120      1.0  0.05921  0.05783  0.62983  1.0000
  H   H77       1.0  0.11507  0.07918  0.67649  1.0000
  H   H78       1.0  0.04229  0.95004  0.71262  1.0000
  H   H79       1.0  0.99145  0.95914  0.64261  1.0000
  H   H80       1.0  0.06349  0.08839  0.60689  1.0000
  B   B39       1.0  0.99120  0.03056  0.57635  1.0000
  O   O39       1.0  0.95470  0.99844  0.56860  1.0000
  B   B40       1.0  0.49069  0.53569  0.08051  1.0000
  O   O40       1.0  0.45265  0.50512  0.07398  1.0000
  C   C121      1.0  0.45432  0.33716  0.59464  1.0000
  C   C122      1.0  0.48960  0.30358  0.58557  1.0000
  C   C123      1.0  0.51815  0.31003  0.54561  1.0000
  C   C124      1.0  0.51156  0.34865  0.51580  1.0000
  C   C125      1.0  0.47595  0.38205  0.52455  1.0000
  C   C126      1.0  0.44753  0.37564  0.56456  1.0000
  H   H81       1.0  0.43174  0.33283  0.62521  1.0000
  H   H82       1.0  0.54533  0.28419  0.53754  1.0000
  H   H83       1.0  0.53380  0.35314  0.48504  1.0000
  H   H84       1.0  0.41979  0.40105  0.57181  1.0000
  B   B41       1.0  0.46792  0.42413  0.49051  1.0000
  O   O41       1.0  0.49763  0.43117  0.45229  1.0000
  B   B42       1.0  0.96680  0.92038  0.99057  1.0000
  O   O42       1.0  0.99758  0.92879  0.95345  1.0000
  B   B43       1.0  0.96756  0.07439  0.50720  1.0000
  O   O43       1.0  0.99746  0.06846  0.54554  1.0000
  B   B44       1.0  0.46760  0.57952  0.01149  1.0000
  O   O44       1.0  0.49750  0.57353  0.04982  1.0000
  C   C127      1.0  0.54535  0.83418  0.90431  1.0000
  C   C128      1.0  0.50822  0.80187  0.91119  1.0000
  C   C129      1.0  0.47740  0.80951  0.94918  1.0000
  C   C130      1.0  0.48343  0.84806  0.97916  1.0000
  C   C131      1.0  0.52069  0.88041  0.97240  1.0000
  C   C132      1.0  0.55139  0.87275  0.93439  1.0000
  H   H85       1.0  0.56992  0.82876  0.87551  1.0000
  H   H86       1.0  0.44870  0.78463  0.95549  1.0000
  H   H87       1.0  0.45935  0.85322  0.00839  1.0000
  H   H88       1.0  0.58039  0.89735  0.92871  1.0000
  B   B45       1.0  0.52855  0.92288  0.00602  1.0000
  O   O45       1.0  0.49975  0.92941  0.04499  1.0000
  B   B46       1.0  0.03197  0.42134  0.50825  1.0000
  O   O46       1.0  0.00234  0.42879  0.54638  1.0000
  C   C133      1.0  0.05263  0.66733  0.08968  1.0000
  C   C134      1.0  0.01191  0.69537  0.08642  1.0000
  C   C135      1.0  0.97814  0.68382  0.05191  1.0000
  C   C136      1.0  0.98462  0.64535  0.02206  1.0000
  C   C137      1.0  0.02538  0.61723  0.02531  1.0000
  C   C138      1.0  0.05920  0.62893  0.05959  1.0000
  H   H89       1.0  0.07939  0.67591  0.11575  1.0000
  H   H90       1.0  0.94678  0.70564  0.04819  1.0000
  H   H91       1.0  0.95810  0.63680  0.99574  1.0000
  H   H92       1.0  0.09093  0.60759  0.06227  1.0000
  B   B47       1.0  0.03328  0.57504  0.99156  1.0000
  O   O47       1.0  0.00029  0.56440  0.95694  1.0000
  C   C139      1.0  0.55052  0.16930  0.59081  1.0000
  C   C140      1.0  0.51068  0.19839  0.58603  1.0000
  C   C141      1.0  0.47791  0.18739  0.55038  1.0000
  C   C142      1.0  0.48475  0.14875  0.52076  1.0000
  C   C143      1.0  0.52461  0.11958  0.52564  1.0000
  C   C144      1.0  0.55725  0.13049  0.56127  1.0000
  H   H93       1.0  0.57663  0.17747  0.61764  1.0000
  H   H94       1.0  0.44702  0.20964  0.54553  1.0000
  H   H95       1.0  0.45922  0.14088  0.49328  1.0000
  H   H96       1.0  0.58833  0.10842  0.56543  1.0000
  B   B48       1.0  0.53288  0.07749  0.49177  1.0000
  O   O48       1.0  0.50421  0.07155  0.45254  1.0000
  Si  Si1       1.0  0.37714  0.00107  0.24960  1.0000
  Si  Si2       1.0  0.12315  0.00326  0.75098  1.0000
  Si  Si3       1.0  0.62621  0.50050  0.25070  1.0000
  Si  Si4       1.0  0.87854  0.50061  0.74950  1.0000
  Si  Si5       1.0  0.25180  0.37476  0.00212  1.0000
  Si  Si6       1.0  0.74933  0.12422  0.99785  1.0000
  Si  Si7       1.0  0.25025  0.62581  0.50020  1.0000
  Si  Si8       1.0  0.74854  0.87299  0.50215  1.0000
  Si  Si9       1.0  0.99826  0.24843  0.37365  1.0000
  Si  Si10      1.0  0.00147  0.74797  0.12523  1.0000
  Si  Si11      1.0  0.50057  0.25124  0.62477  1.0000
  Si  Si12      1.0  0.49792  0.74901  0.87241  1.0000
  C  Sn1       1.0  0.18660  0.89792  0.68448  1.0000
  C   C145      1.0  0.22470  0.88350  0.71201  1.0000
  C  Sn2       1.0  0.23039  0.90093  0.75754  1.0000
  C  Sn3       1.0  0.19730  0.93344  0.77596  1.0000
  C   C146      1.0  0.15922  0.94784  0.74844  1.0000
  C  Sn4       1.0  0.15350  0.93042  0.70290  1.0000
  O  Te1       1.0  0.18160  0.88003  0.63906  1.0000
  O  Te2       1.0  0.26878  0.88601  0.78438  1.0000
  O  Te3       1.0  0.20233  0.95132  0.82142  1.0000
  O  Te4       1.0  0.11515  0.94533  0.67607  1.0000
  Mg  Mg1       1.0  0.26038  0.92036  0.84431  1.0000
  Mg  Mg2       1.0  0.12349  0.91098  0.61615  1.0000
  C  Sn5       1.0  0.95232  0.87059  0.07860  1.0000
  C   C147      1.0  0.97738  0.88250  0.03806  1.0000
  C  Sn6       1.0  0.00747  0.84970  0.01721  1.0000
  C  Sn7       1.0  0.01260  0.80403  0.03728  1.0000
  C   C148      1.0  0.98755  0.79214  0.07778  1.0000
  C  Sn8       1.0  0.95745  0.82492  0.09867  1.0000
  O  Te5       1.0  0.92243  0.90394  0.09885  1.0000
  O  Te6       1.0  0.03352  0.86096  0.97671  1.0000
  O  Te7       1.0  0.04252  0.77067  0.01699  1.0000
  O  Te8       1.0  0.93276  0.81221  0.13914  1.0000
  Mg  Mg3       1.0  0.06996  0.80324  0.96204  1.0000
  Mg  Mg4       1.0  0.89631  0.86988  0.15382  1.0000
  C  Sn9       1.0  0.60674  0.31768  0.68675  1.0000
  C   C149      1.0  0.62147  0.28966  0.72444  1.0000
  C  Sn10      1.0  0.60424  0.24361  0.72980  1.0000
  C  Sn11      1.0  0.57162  0.22516  0.69677  1.0000
  C   C150      1.0  0.55691  0.25317  0.65911  1.0000
  C  Sn12      1.0  0.57412  0.29923  0.65373  1.0000
  O  Te9       1.0  0.62443  0.36362  0.68208  1.0000
  O  Te10      1.0  0.61947  0.21628  0.76777  1.0000
  O  Te11      1.0  0.55393  0.17918  0.70147  1.0000
  O  Te12      1.0  0.55890  0.32655  0.61578  1.0000
  Mg  Mg5       1.0  0.58530  0.15574  0.75902  1.0000
  Mg  Mg6       1.0  0.59307  0.38708  0.62447  1.0000
  C  Sn13      1.0  0.27498  0.71979  0.40183  1.0000
  C   C151      1.0  0.23855  0.71873  0.36884  1.0000
  C  Sn14      1.0  0.19780  0.69237  0.37748  1.0000
  C  Sn15      1.0  0.19335  0.66653  0.41998  1.0000
  C   C152      1.0  0.22976  0.66760  0.45295  1.0000
  C  Sn16      1.0  0.27054  0.69396  0.44434  1.0000
  O  Te13      1.0  0.31541  0.74639  0.39247  1.0000
  O  Te14      1.0  0.16186  0.69184  0.34396  1.0000
  O  Te15      1.0  0.15289  0.63992  0.42933  1.0000
  O  Te16      1.0  0.30645  0.69449  0.47783  1.0000
  Mg  Mg7       1.0  0.11362  0.65035  0.37283  1.0000
  Mg  Mg8       1.0  0.35470  0.73599  0.44901  1.0000
  C  Sn17      1.0  0.72076  0.56021  0.23846  1.0000
  C   C153      1.0  0.68066  0.54772  0.26404  1.0000
  C  Sn18      1.0  0.65942  0.58043  0.29393  1.0000
  C  Sn19      1.0  0.67863  0.62661  0.29833  1.0000
  C   C154      1.0  0.71871  0.63909  0.27276  1.0000
  C  Sn20      1.0  0.73998  0.60639  0.24286  1.0000
  O  Te17      1.0  0.74142  0.52693  0.20879  1.0000
  O  Te18      1.0  0.61936  0.56712  0.31915  1.0000
  O  Te19      1.0  0.65794  0.65990  0.32803  1.0000
  O  Te20      1.0  0.78001  0.61968  0.21765  1.0000
  Mg  Mg9       1.0  0.60386  0.62497  0.35503  1.0000
  Mg  Mg10      1.0  0.79552  0.56187  0.18174  1.0000
  C  Sn21      1.0  0.45182  0.62576  0.92166  1.0000
  C   C155      1.0  0.47748  0.61571  0.96234  1.0000
  C  Sn22      1.0  0.50696  0.64997  0.98213  1.0000
  C  Sn23      1.0  0.51084  0.69523  0.96084  1.0000
  C   C156      1.0  0.48519  0.70526  0.92019  1.0000
  C  Sn24      1.0  0.45570  0.67101  0.90037  1.0000
  O  Te21      1.0  0.42256  0.59097  0.90248  1.0000
  O  Te22      1.0  0.53091  0.64057  0.02280  1.0000
  O  Te23      1.0  0.54013  0.73002  0.98005  1.0000
  O  Te24      1.0  0.43039  0.68187  0.85973  1.0000
  Mg  Mg11      1.0  0.56609  0.69975  0.03571  1.0000
  Mg  Mg12      1.0  0.39519  0.62273  0.84680  1.0000
  C  Sn25      1.0  0.83053  0.01192  0.00774  1.0000
  C   C157      1.0  0.86756  0.01366  0.97414  1.0000
  C  Sn26      1.0  0.87394  0.05531  0.94841  1.0000
  C  Sn27      1.0  0.84407  0.09458  0.95643  1.0000
  C   C158      1.0  0.80844  0.09137  0.99002  1.0000
  C  Sn28      1.0  0.80067  0.05120  0.01577  1.0000
  O  Te25      1.0  0.82814  0.96994  0.03307  1.0000
  O  Te26      1.0  0.90982  0.05767  0.91499  1.0000
  O  Te27      1.0  0.84983  0.13659  0.93107  1.0000
  O  Te28      1.0  0.76482  0.04883  0.04917  1.0000
  Mg  Mg13      1.0  0.90367  0.12255  0.88940  1.0000
  Mg  Mg14      1.0  0.77429  0.98397  0.07480  1.0000
  C  Sn29      1.0  0.33200  0.42476  0.06546  1.0000
  C   C159      1.0  0.30108  0.42301  0.02731  1.0000
  C  Sn30      1.0  0.31354  0.44475  0.98541  1.0000
  C  Sn31      1.0  0.35645  0.47021  0.98154  1.0000
  C   C160      1.0  0.38599  0.47342  0.01968  1.0000
  C  Sn32      1.0  0.37491  0.45023  0.06160  1.0000
  O  Te29      1.0  0.32018  0.40130  0.10702  1.0000
  O  Te30      1.0  0.28206  0.44250  0.94775  1.0000
  O  Te31      1.0  0.36825  0.49369  0.93994  1.0000
  O  Te32      1.0  0.40637  0.45246  0.09924  1.0000
  Mg  Mg15      1.0  0.31391  0.48024  0.89846  1.0000
  Mg  Mg16      1.0  0.37456  0.41471  0.14853  1.0000
  C  Sn33      1.0  0.54745  0.53020  0.32414  1.0000
  C   C161      1.0  0.58640  0.50301  0.31149  1.0000
  C  Sn34      1.0  0.59315  0.45821  0.33113  1.0000
  C  Sn35      1.0  0.56027  0.44019  0.36409  1.0000
  C   C162      1.0  0.52134  0.46737  0.37672  1.0000
  C  Sn36      1.0  0.51457  0.51218  0.35710  1.0000
  O  Te33      1.0  0.54140  0.57490  0.30406  1.0000
  O  Te34      1.0  0.63237  0.43169  0.31794  1.0000
  O  Te35      1.0  0.56635  0.39546  0.38417  1.0000
  O  Te36      1.0  0.47538  0.53869  0.37026  1.0000
  Mg  Mg17      1.0  0.62527  0.37276  0.35500  1.0000
  Mg  Mg18      1.0  0.48243  0.59761  0.33321  1.0000
  C  Sn37      1.0  0.04771  0.03127  0.82825  1.0000
  C   C163      1.0  0.08535  0.00352  0.81310  1.0000
  C  Sn38      1.0  0.09426  0.95743  0.82999  1.0000
  C  Sn39      1.0  0.06151  0.93867  0.86268  1.0000
  C   C164      1.0  0.02390  0.96642  0.87780  1.0000
  C  Sn40      1.0  0.01496  0.01252  0.86094  1.0000
  O  Te37      1.0  0.04283  0.07725  0.81090  1.0000
  O  Te38      1.0  0.13218  0.93037  0.81434  1.0000
  O  Te39      1.0  0.06642  0.89265  0.88003  1.0000
  O  Te40      1.0  0.97707  0.03957  0.87656  1.0000
  Mg  Mg19      1.0  0.12379  0.86965  0.84816  1.0000
  Mg  Mg20      1.0  0.98541  0.10028  0.84275  1.0000
  C  Sn41      1.0  0.48728  0.00790  0.16600  1.0000
  C   C165      1.0  0.48486  0.97525  0.12962  1.0000
  C  Sn42      1.0  0.44204  0.95157  0.12367  1.0000
  C  Sn43      1.0  0.40419  0.96073  0.15471  1.0000
  C   C166      1.0  0.40996  0.99337  0.19106  1.0000
  C  Sn44      1.0  0.44942  0.01706  0.19705  1.0000
  O  Te41      1.0  0.53039  0.03116  0.17129  1.0000
  O  Te42      1.0  0.43713  0.91906  0.08705  1.0000
  O  Te43      1.0  0.36105  0.93743  0.14940  1.0000
  O  Te44      1.0  0.45435  0.04955  0.23364  1.0000
  Mg  Mg21      1.0  0.37156  0.89632  0.09421  1.0000
  Mg  Mg22      1.0  0.51989  0.07233  0.22649  1.0000
  C  Sn45      1.0  0.32080  0.30761  0.90132  1.0000
  C   C167      1.0  0.29132  0.27187  0.88424  1.0000
  C  Sn46      1.0  0.24430  0.26949  0.89830  1.0000
  C  Sn47      1.0  0.22636  0.30355  0.93006  1.0000
  C   C168      1.0  0.25584  0.33927  0.94712  1.0000
  C  Sn48      1.0  0.30287  0.34167  0.93309  1.0000
  O  Te45      1.0  0.36769  0.30932  0.88680  1.0000
  O  Te46      1.0  0.21550  0.23342  0.88076  1.0000
  O  Te47      1.0  0.17944  0.30182  0.94458  1.0000
  O  Te48      1.0  0.33165  0.37772  0.95060  1.0000
  Mg  Mg23      1.0  0.15410  0.24601  0.91094  1.0000
  Mg  Mg24      1.0  0.39305  0.36518  0.92043  1.0000
  C  Sn49      1.0  0.16816  0.41926  0.93947  1.0000
  C   C169      1.0  0.20137  0.42086  0.97567  1.0000
  C  Sn50      1.0  0.19185  0.44969  0.01563  1.0000
  C  Sn51      1.0  0.14961  0.47597  0.01951  1.0000
  C   C170      1.0  0.11779  0.47288  0.98334  1.0000
  C  Sn52      1.0  0.12592  0.44554  0.94335  1.0000
  O  Te49      1.0  0.17705  0.39166  0.89984  1.0000
  O  Te50      1.0  0.22558  0.45074  0.05135  1.0000
  O  Te51      1.0  0.14074  0.50358  0.05919  1.0000
  O  Te52      1.0  0.09221  0.44447  0.90765  1.0000
  Mg  Mg25      1.0  0.19737  0.49356  0.09845  1.0000
  Mg  Mg26      1.0  0.12037  0.40165  0.86056  1.0000
  C  Sn53      1.0  0.96826  0.32602  0.44957  1.0000
  C   C171      1.0  0.99672  0.31089  0.41258  1.0000
  C  Sn54      1.0  0.04294  0.32735  0.40853  1.0000
  C  Sn55      1.0  0.06111  0.35957  0.44218  1.0000
  C   C172      1.0  0.03266  0.37467  0.47915  1.0000
  C  Sn56      1.0  0.98643  0.35824  0.48322  1.0000
  O  Te53      1.0  0.92215  0.30911  0.45293  1.0000
  O  Te54      1.0  0.07072  0.31173  0.37124  1.0000
  O  Te55      1.0  0.10726  0.37647  0.43879  1.0000
  O  Te56      1.0  0.95866  0.37383  0.52049  1.0000
  Mg  Mg27      1.0  0.13132  0.34484  0.38175  1.0000
  Mg  Mg28      1.0  0.89806  0.34073  0.51002  1.0000
  C  Sn57      1.0  0.78577  0.40047  0.72391  1.0000
  C   C173      1.0  0.78288  0.37027  0.76271  1.0000
  C  Sn58      1.0  0.80586  0.38175  0.80458  1.0000
  C  Sn59      1.0  0.83226  0.42432  0.80774  1.0000
  C   C174      1.0  0.83513  0.45450  0.76897  1.0000
  C  Sn60      1.0  0.81217  0.44304  0.72708  1.0000
  O  Te57      1.0  0.76251  0.38829  0.68241  1.0000
  O  Te58      1.0  0.80247  0.35098  0.84288  1.0000
  O  Te59      1.0  0.85553  0.43648  0.84929  1.0000
  O  Te60      1.0  0.81554  0.47379  0.68879  1.0000
  Mg  Mg29      1.0  0.84038  0.38311  0.89181  1.0000
  Mg  Mg30      1.0  0.77763  0.44171  0.63986  1.0000
  C  Sn61      1.0  0.45250  0.97123  0.32647  1.0000
  C   C175      1.0  0.41254  0.00020  0.31089  1.0000
  C  Sn62      1.0  0.40826  0.04641  0.32771  1.0000
  C  Sn63      1.0  0.44129  0.06404  0.36077  1.0000
  C   C176      1.0  0.47788  0.03508  0.37633  1.0000
  C  Sn64      1.0  0.48552  0.98886  0.35953  1.0000
  O  Te61      1.0  0.45609  0.92516  0.30918  1.0000
  O  Te62      1.0  0.37136  0.07470  0.31163  1.0000
  O  Te63      1.0  0.43766  0.11015  0.37806  1.0000
  O  Te64      1.0  0.52240  0.96058  0.37559  1.0000
  Mg  Mg31      1.0  0.38132  0.13504  0.34553  1.0000
  Mg  Mg32      1.0  0.51248  0.90025  0.34170  1.0000
  C  Sn65      1.0  0.90433  0.77546  0.21900  1.0000
  C   C177      1.0  0.87142  0.73860  0.21982  1.0000
  C  Sn66      1.0  0.88015  0.69651  0.19574  1.0000
  C  Sn67      1.0  0.92268  0.69112  0.17034  1.0000
  C   C178      1.0  0.95556  0.72795  0.16953  1.0000
  C  Sn68      1.0  0.94686  0.77007  0.19360  1.0000
  O  Te65      1.0  0.89486  0.81723  0.24333  1.0000
  O  Te66      1.0  0.84671  0.66017  0.19706  1.0000
  O  Te67      1.0  0.93212  0.64930  0.14600  1.0000
  O  Te68      1.0  0.98027  0.80639  0.19229  1.0000
  Mg  Mg33      1.0  0.87570  0.60997  0.15836  1.0000
  Mg  Mg34      1.0  0.95133  0.85659  0.23100  1.0000
  C  Sn69      1.0  0.39575  0.81728  0.80680  1.0000
  C   C179      1.0  0.37864  0.78837  0.77080  1.0000
  C  Sn70      1.0  0.39312  0.74131  0.76737  1.0000
  C  Sn71      1.0  0.42536  0.72273  0.80063  1.0000
  C   C180      1.0  0.44244  0.75163  0.83661  1.0000
  C  Sn72      1.0  0.42798  0.79870  0.84006  1.0000
  O  Te69      1.0  0.38078  0.86423  0.80956  1.0000
  O  Te70      1.0  0.37554  0.71310  0.73107  1.0000
  O  Te71      1.0  0.44031  0.67574  0.79785  1.0000
  O  Te72      1.0  0.44554  0.82690  0.87634  1.0000
  Mg  Mg35      1.0  0.40643  0.65136  0.74210  1.0000
  Mg  Mg36      1.0  0.41466  0.88864  0.86535  1.0000
  C  Sn73      1.0  0.20864  0.34754  0.10338  1.0000
  C   C181      1.0  0.24173  0.34334  0.06740  1.0000
  C  Sn74      1.0  0.26466  0.30039  0.05973  1.0000
  C  Sn75      1.0  0.25427  0.26079  0.08863  1.0000
  C   C182      1.0  0.22119  0.26499  0.12458  1.0000
  C  Sn76      1.0  0.19825  0.30794  0.13227  1.0000
  O  Te73      1.0  0.18614  0.39082  0.11041  1.0000
  O  Te74      1.0  0.29762  0.29706  0.02355  1.0000
  O  Te75      1.0  0.27680  0.21749  0.08157  1.0000
  O  Te76      1.0  0.16530  0.31128  0.16843  1.0000
  Mg  Mg37      1.0  0.31896  0.23055  0.02780  1.0000
  Mg  Mg38      1.0  0.14393  0.37776  0.16419  1.0000
  C  Sn77      1.0  0.17276  0.55082  0.46955  1.0000
  C   C183      1.0  0.18904  0.58640  0.49955  1.0000
  C  Sn78      1.0  0.17335  0.58857  0.54594  1.0000
  C  Sn79      1.0  0.14071  0.55445  0.56272  1.0000
  C   C184      1.0  0.12445  0.51889  0.53273  1.0000
  C  Sn80      1.0  0.14013  0.51670  0.48632  1.0000
  O  Te77      1.0  0.18893  0.54933  0.42330  1.0000
  O  Te78      1.0  0.19012  0.62448  0.57527  1.0000
  O  Te79      1.0  0.12455  0.55597  0.60901  1.0000
  O  Te80      1.0  0.12338  0.48082  0.45701  1.0000
  Mg  Mg39      1.0  0.15768  0.61162  0.63545  1.0000
  Mg  Mg40      1.0  0.15581  0.49362  0.39683  1.0000
  C  Sn81      1.0  0.58299  0.56194  0.16556  1.0000
  C   C185      1.0  0.58088  0.52632  0.19960  1.0000
  C  Sn82      1.0  0.55230  0.48659  0.19282  1.0000
  C  Sn83      1.0  0.52529  0.48234  0.15112  1.0000
  C   C186      1.0  0.52741  0.51793  0.11710  1.0000
  C  Sn84      1.0  0.55598  0.55769  0.12386  1.0000
  O  Te81      1.0  0.61180  0.60135  0.17309  1.0000
  O  Te82      1.0  0.55076  0.45145  0.22736  1.0000
  O  Te83      1.0  0.49646  0.44289  0.14362  1.0000
  O  Te84      1.0  0.55753  0.59280  0.08935  1.0000
  Mg  Mg41      1.0  0.50623  0.40445  0.20094  1.0000
  Mg  Mg42      1.0  0.60206  0.63980  0.11571  1.0000
  C  Sn85      1.0  0.93723  0.16283  0.41901  1.0000
  C   C187      1.0  0.97331  0.19656  0.41950  1.0000
  C  Sn86      1.0  0.01442  0.18847  0.44517  1.0000
  C  Sn87      1.0  0.01960  0.14576  0.47088  1.0000
  C   C188      1.0  0.98354  0.11206  0.47038  1.0000
  C  Sn88      1.0  0.94241  0.12012  0.44472  1.0000
  O  Te85      1.0  0.89644  0.17166  0.39310  1.0000
  O  Te86      1.0  0.05000  0.22272  0.44513  1.0000
  O  Te87      1.0  0.06044  0.13696  0.49680  1.0000
  O  Te88      1.0  0.90685  0.08589  0.44474  1.0000
  Mg  Mg43      1.0  0.09898  0.19438  0.48578  1.0000
  Mg  Mg44      1.0  0.85787  0.11419  0.40408  1.0000
  C  Sn89      1.0  0.83278  0.98243  0.49060  1.0000
  C   C189      1.0  0.86783  0.98019  0.52498  1.0000
  C  Sn90      1.0  0.87246  0.93990  0.55307  1.0000
  C  Sn91      1.0  0.84144  0.90101  0.54664  1.0000
  C   C190      1.0  0.80642  0.90325  0.51227  1.0000
  C  Sn92      1.0  0.80175  0.94354  0.48416  1.0000
  O  Te89      1.0  0.82545  0.02306  0.46292  1.0000
  O  Te90      1.0  0.90777  0.93850  0.58723  1.0000
  O  Te91      1.0  0.84546  0.86036  0.57435  1.0000
  O  Te92      1.0  0.76648  0.94495  0.45002  1.0000
  Mg  Mg45      1.0  0.89912  0.87533  0.61620  1.0000
  Mg  Mg46      1.0  0.77177  0.00809  0.42101  1.0000
  C  Sn93      1.0  0.39687  0.18509  0.69104  1.0000
  C   C191      1.0  0.38302  0.21324  0.72886  1.0000
  C  Sn94      1.0  0.40045  0.25928  0.73363  1.0000
  C  Sn95      1.0  0.43237  0.27757  0.69989  1.0000
  C   C192      1.0  0.44620  0.24944  0.66210  1.0000
  C  Sn96      1.0  0.42879  0.20339  0.65730  1.0000
  O  Te93      1.0  0.37900  0.13917  0.68697  1.0000
  O  Te94      1.0  0.38610  0.28674  0.77174  1.0000
  O  Te95      1.0  0.45024  0.32353  0.70399  1.0000
  O  Te96      1.0  0.44312  0.17594  0.61922  1.0000
  Mg  Mg47      1.0  0.42018  0.34719  0.76200  1.0000
  Mg  Mg48      1.0  0.40905  0.11550  0.62890  1.0000
