data_image0
_chemical_formula_structural       OBOBOBOBOBOBCHC2HC2HCHOBCHC2HC2HCHOBCHC2HC2HCHOBOBCHC2HC2HCHOBOBOBOBOBCHC2HC2HCHOBCHC2HC2HCHOBCHC2HC2HCHOBCHC2HC2HCHOBOBCHC2HC2HCHOBCHC2HC2HCHOBCHC2HC2HCHOBCHC2HC2HCHOBOBCHC2HC2HCHOBCHC2HC2HCHOBCHC2HC2HCHOBOBOBCHC2HC2HCHOBOBCHC2HC2HCHOBOBOBOBOBCHC2HC2HCHOBCHC2HC2HCHOBCHC2HC2HCHOBCHC2HC2HCHOBOBOBOBCHC2HC2HCHOBCHC2HC2HCHOBOBOBCHC2HC2HCHC14Sn2C2HTe2HMgC2Sn2C2HTe2HMgC2Sn2C2HTe2HMgC2Sn2C2HTe2HMgC2Sn2C2HTe2HMgC2Sn2C2HTe2HMgC2Sn2C2HTe2HMgC2Sn2C2HTe2HMgC2Sn2C2HTe2HMgC2Sn2C2HTe2HMgC2Sn2C2HTe2HMgC2Sn2C2HTe2HMgC2Sn2C2HTe2HMgC2Sn2C2HTe2HMgC2Sn2C2HTe2HMgC2Sn2C2HTe2HMgC2Sn2C2HTe2HMgC2Sn2C2HTe2HMgC2Sn2C2HTe2HMgC2Sn2C2HTe2HMgC2Sn2C2HTe2HMgC2Sn2C2HTe2HMgC2Sn2C2HTe2HMgC2Sn2C2HTe2HMg
_chemical_formula_sum              "O48 B48 C252 H144 Sn48 Te48 Mg24"
_cell_length_a       27.1793
_cell_length_b       27.1479
_cell_length_c       27.1311
_cell_angle_alpha    89.9687
_cell_angle_beta     90
_cell_angle_gamma    90.1412

_symmetry_space_group_name_H-M    'P1'
_space_group_IT_number       1

loop_
  _space_group_symop_operation_xyz
  'x, y, z'

loop_
  _atom_site_type_symbol
  _atom_site_label
  _atom_site_symmetry_multiplicity
  _atom_site_fract_x
  _atom_site_fract_y
  _atom_site_fract_z
  _atom_site_occupancy
  O   O1        1.0  0.82780  0.74488  0.30238  1.0000
  B   B1        1.0  0.83342  0.71515  0.26091  1.0000
  O   O2        1.0  0.32483  0.24493  0.80324  1.0000
  B   B2        1.0  0.33318  0.21308  0.76399  1.0000
  O   O3        1.0  0.67104  0.25739  0.80238  1.0000
  B   B3        1.0  0.66450  0.28884  0.76226  1.0000
  O   O4        1.0  0.17384  0.75752  0.30241  1.0000
  B   B4        1.0  0.16698  0.78869  0.26219  1.0000
  O   O5        1.0  0.17437  0.24474  0.19913  1.0000
  B   B5        1.0  0.16632  0.21246  0.23820  1.0000
  O   O6        1.0  0.67365  0.74275  0.69708  1.0000
  B   B6        1.0  0.66760  0.71439  0.73937  1.0000
  C   C1        1.0  0.58965  0.76183  0.76647  1.0000
  H   H1        1.0  0.59430  0.78579  0.73459  1.0000
  C   C2        1.0  0.62365  0.72355  0.77461  1.0000
  C   C3        1.0  0.57641  0.70062  0.84795  1.0000
  H   H2        1.0  0.57157  0.67599  0.87912  1.0000
  C   C4        1.0  0.54278  0.73883  0.83981  1.0000
  C   C5        1.0  0.61612  0.69334  0.81602  1.0000
  H   H3        1.0  0.64177  0.66344  0.82314  1.0000
  C   C6        1.0  0.55017  0.76928  0.79835  1.0000
  H   H4        1.0  0.52422  0.79882  0.79091  1.0000
  O   O7        1.0  0.32136  0.75037  0.70022  1.0000
  B   B7        1.0  0.32834  0.78173  0.74024  1.0000
  C   C7        1.0  0.40322  0.73228  0.77099  1.0000
  H   H5        1.0  0.39579  0.70545  0.74213  1.0000
  C   C8        1.0  0.37227  0.77365  0.77579  1.0000
  C   C9        1.0  0.42338  0.80067  0.84493  1.0000
  H   H6        1.0  0.43125  0.82804  0.87303  1.0000
  C   C10       1.0  0.45355  0.75913  0.84037  1.0000
  C   C11       1.0  0.38336  0.80760  0.81327  1.0000
  H   H7        1.0  0.36048  0.84019  0.81758  1.0000
  C   C12       1.0  0.44300  0.72528  0.80251  1.0000
  H   H8        1.0  0.46671  0.69336  0.79783  1.0000
  O   O8        1.0  0.82901  0.25693  0.19564  1.0000
  B   B8        1.0  0.83632  0.28820  0.23565  1.0000
  C   C13       1.0  0.90945  0.23747  0.26764  1.0000
  H   H9        1.0  0.90317  0.21191  0.23738  1.0000
  C   C14       1.0  0.87880  0.27897  0.27239  1.0000
  C   C15       1.0  0.92669  0.30334  0.34467  1.0000
  H   H10       1.0  0.93349  0.32975  0.37396  1.0000
  C   C16       1.0  0.95681  0.26182  0.33993  1.0000
  C   C17       1.0  0.88818  0.31155  0.31152  1.0000
  H   H11       1.0  0.86517  0.34405  0.31575  1.0000
  C   C18       1.0  0.94763  0.22910  0.30069  1.0000
  H   H12       1.0  0.97132  0.19723  0.29589  1.0000
  O   O9        1.0  0.29574  0.82054  0.74754  1.0000
  B   B9        1.0  0.25842  0.83029  0.71372  1.0000
  O   O10       1.0  0.80446  0.32757  0.24280  1.0000
  B   B10       1.0  0.76556  0.33578  0.21056  1.0000
  C   C19       1.0  0.72914  0.40410  0.26549  1.0000
  H   H13       1.0  0.75559  0.39385  0.29383  1.0000
  C   C20       1.0  0.72918  0.37850  0.22027  1.0000
  C   C21       1.0  0.66152  0.43108  0.19317  1.0000
  H   H14       1.0  0.63581  0.44167  0.16443  1.0000
  C   C22       1.0  0.66113  0.45582  0.23846  1.0000
  C   C23       1.0  0.69481  0.39291  0.18441  1.0000
  H   H15       1.0  0.69442  0.37410  0.14899  1.0000
  C   C24       1.0  0.69589  0.44196  0.27438  1.0000
  H   H16       1.0  0.69674  0.46148  0.30942  1.0000
  O   O11       1.0  0.80007  0.67709  0.25247  1.0000
  B   B11       1.0  0.76171  0.66798  0.28528  1.0000
  O   O12       1.0  0.30224  0.17270  0.75725  1.0000
  B   B12       1.0  0.26324  0.16415  0.78936  1.0000
  O   O13       1.0  0.19753  0.17244  0.24496  1.0000
  B   B13       1.0  0.23637  0.16429  0.21259  1.0000
  O   O14       1.0  0.70156  0.67740  0.74986  1.0000
  B   B14       1.0  0.74005  0.66783  0.71741  1.0000
  O   O15       1.0  0.69755  0.32747  0.75501  1.0000
  B   B15       1.0  0.73701  0.33443  0.78711  1.0000
  C   C25       1.0  0.77248  0.40531  0.73451  1.0000
  H   H17       1.0  0.74502  0.39679  0.70655  1.0000
  C   C26       1.0  0.77411  0.37697  0.77807  1.0000
  C   C27       1.0  0.84297  0.42829  0.80568  1.0000
  H   H18       1.0  0.86971  0.43734  0.83405  1.0000
  C   C28       1.0  0.84140  0.45597  0.76212  1.0000
  C   C29       1.0  0.81002  0.38934  0.81329  1.0000
  H   H19       1.0  0.81189  0.36834  0.84745  1.0000
  C   C30       1.0  0.80525  0.44402  0.72686  1.0000
  H   H20       1.0  0.80288  0.46586  0.69332  1.0000
  O   O16       1.0  0.19982  0.82744  0.25465  1.0000
  B   B16       1.0  0.23984  0.83437  0.28594  1.0000
  C   C31       1.0  0.27212  0.90724  0.23459  1.0000
  H   H21       1.0  0.24328  0.89943  0.20786  1.0000
  C   C32       1.0  0.27612  0.87744  0.27697  1.0000
  C   C33       1.0  0.34609  0.92783  0.30291  1.0000
  H   H22       1.0  0.37445  0.93592  0.32995  1.0000
  C   C34       1.0  0.34207  0.95704  0.26061  1.0000
  C   C35       1.0  0.31367  0.88854  0.31081  1.0000
  H   H23       1.0  0.31733  0.86629  0.34400  1.0000
  C   C36       1.0  0.30434  0.94629  0.22667  1.0000
  H   H24       1.0  0.30041  0.96917  0.19397  1.0000
  O   O17       1.0  0.74287  0.30278  0.82715  1.0000
  B   B17       1.0  0.71046  0.26361  0.83454  1.0000
  C   C37       1.0  0.76106  0.23189  0.90807  1.0000
  H   H25       1.0  0.78648  0.26218  0.90128  1.0000
  C   C38       1.0  0.71926  0.22707  0.87765  1.0000
  C   C39       1.0  0.69568  0.15499  0.92648  1.0000
  H   H26       1.0  0.66924  0.12582  0.93380  1.0000
  C   C40       1.0  0.73770  0.15951  0.95611  1.0000
  C   C41       1.0  0.68682  0.18798  0.88788  1.0000
  H   H27       1.0  0.65396  0.18339  0.86539  1.0000
  C   C42       1.0  0.77007  0.19900  0.94642  1.0000
  H   H28       1.0  0.80222  0.20424  0.96976  1.0000
  O   O18       1.0  0.24711  0.80213  0.32513  1.0000
  B   B18       1.0  0.21449  0.76326  0.33318  1.0000
  C   C43       1.0  0.26704  0.72811  0.40418  1.0000
  H   H29       1.0  0.29498  0.75562  0.39565  1.0000
  C   C44       1.0  0.22364  0.72640  0.37575  1.0000
  C   C45       1.0  0.19594  0.65721  0.42653  1.0000
  H   H30       1.0  0.16757  0.63033  0.43527  1.0000
  C   C46       1.0  0.23934  0.65881  0.45429  1.0000
  C   C47       1.0  0.18842  0.69040  0.38784  1.0000
  H   H31       1.0  0.15447  0.68867  0.36665  1.0000
  C   C48       1.0  0.27451  0.69530  0.44285  1.0000
  H   H32       1.0  0.30777  0.69794  0.46505  1.0000
  O   O19       1.0  0.25279  0.79966  0.67289  1.0000
  B   B19       1.0  0.28373  0.75919  0.66654  1.0000
  O   O20       1.0  0.75925  0.30480  0.17014  1.0000
  B   B20       1.0  0.78954  0.26396  0.16381  1.0000
  C   C49       1.0  0.73614  0.23001  0.09304  1.0000
  H   H33       1.0  0.70999  0.25946  0.10026  1.0000
  C   C50       1.0  0.77895  0.22640  0.12217  1.0000
  C   C51       1.0  0.80283  0.15469  0.07327  1.0000
  H   H34       1.0  0.82956  0.12607  0.06543  1.0000
  C   C52       1.0  0.76034  0.15862  0.04433  1.0000
  C   C53       1.0  0.81175  0.18785  0.11169  1.0000
  H   H35       1.0  0.84511  0.18405  0.13359  1.0000
  C   C54       1.0  0.72707  0.19685  0.05502  1.0000
  H   H36       1.0  0.69423  0.20084  0.03245  1.0000
  O   O21       1.0  0.24297  0.19560  0.17250  1.0000
  B   B21       1.0  0.21277  0.23646  0.16616  1.0000
  C   C55       1.0  0.26564  0.27115  0.09511  1.0000
  H   H37       1.0  0.29343  0.24366  0.10380  1.0000
  C   C56       1.0  0.22198  0.27273  0.12313  1.0000
  C   C57       1.0  0.19462  0.34139  0.07175  1.0000
  H   H38       1.0  0.16622  0.36789  0.06244  1.0000
  C   C58       1.0  0.23850  0.34032  0.04476  1.0000
  C   C59       1.0  0.18678  0.30840  0.11055  1.0000
  H   H39       1.0  0.15254  0.30997  0.13127  1.0000
  C   C60       1.0  0.27368  0.30424  0.05678  1.0000
  H   H40       1.0  0.30742  0.30211  0.03527  1.0000
  O   O22       1.0  0.74679  0.69783  0.67625  1.0000
  B   B22       1.0  0.71387  0.73570  0.66598  1.0000
  C   C61       1.0  0.76594  0.76983  0.59358  1.0000
  H   H41       1.0  0.79428  0.74303  0.60264  1.0000
  C   C62       1.0  0.72193  0.77038  0.62117  1.0000
  C   C63       1.0  0.69353  0.83801  0.56871  1.0000
  H   H42       1.0  0.66463  0.86376  0.55882  1.0000
  C   C64       1.0  0.73814  0.83856  0.54284  1.0000
  C   C65       1.0  0.68582  0.80472  0.60733  1.0000
  H   H43       1.0  0.65104  0.80536  0.62721  1.0000
  C   C66       1.0  0.77381  0.80307  0.55528  1.0000
  H   H44       1.0  0.80799  0.80180  0.53441  1.0000
  O   O23       1.0  0.75481  0.69969  0.32499  1.0000
  B   B23       1.0  0.78776  0.73804  0.33372  1.0000
  C   C67       1.0  0.73385  0.77305  0.40302  1.0000
  H   H45       1.0  0.70548  0.74680  0.39227  1.0000
  C   C68       1.0  0.77913  0.77327  0.37763  1.0000
  C   C69       1.0  0.80669  0.83968  0.43175  1.0000
  H   H46       1.0  0.83565  0.86478  0.44335  1.0000
  C   C70       1.0  0.76112  0.84023  0.45583  1.0000
  C   C71       1.0  0.81537  0.80686  0.39305  1.0000
  H   H47       1.0  0.85103  0.80698  0.37475  1.0000
  C   C72       1.0  0.72507  0.80584  0.44135  1.0000
  H   H48       1.0  0.69010  0.80479  0.46089  1.0000
  O   O24       1.0  0.25664  0.19497  0.82985  1.0000
  B   B24       1.0  0.28654  0.23617  0.83627  1.0000
  O   O25       1.0  0.99312  0.07726  0.55071  1.0000
  B   B25       1.0  0.96012  0.08525  0.51231  1.0000
  C   C73       1.0  0.01341  0.15567  0.47843  1.0000
  H   H49       1.0  0.04022  0.14703  0.50691  1.0000
  C   C74       1.0  0.96976  0.12767  0.47545  1.0000
  C   C75       1.0  0.94491  0.17842  0.40538  1.0000
  H   H50       1.0  0.91769  0.18733  0.37747  1.0000
  C   C76       1.0  0.98841  0.20600  0.40852  1.0000
  C   C77       1.0  0.93589  0.13977  0.43830  1.0000
  H   H51       1.0  0.90181  0.11882  0.43541  1.0000
  C   C78       1.0  0.02244  0.19412  0.44578  1.0000
  H   H52       1.0  0.05592  0.21588  0.44919  1.0000
  O   O26       1.0  0.49320  0.57777  0.05475  1.0000
  B   B26       1.0  0.46238  0.58456  0.01437  1.0000
  C   C79       1.0  0.51249  0.65868  0.98210  1.0000
  H   H53       1.0  0.53811  0.65300  0.01240  1.0000
  C   C80       1.0  0.47153  0.62712  0.97745  1.0000
  C   C81       1.0  0.44688  0.67424  0.90475  1.0000
  H   H54       1.0  0.42036  0.68034  0.87546  1.0000
  C   C82       1.0  0.48796  0.70520  0.90917  1.0000
  C   C83       1.0  0.43897  0.63586  0.93821  1.0000
  H   H55       1.0  0.40673  0.61236  0.93400  1.0000
  C   C84       1.0  0.52040  0.69699  0.94888  1.0000
  H   H56       1.0  0.55160  0.72161  0.95401  1.0000
  O   O27       1.0  0.50667  0.92013  0.05289  1.0000
  B   B27       1.0  0.53606  0.91483  0.01126  1.0000
  C   C85       1.0  0.48515  0.84104  0.98040  1.0000
  H   H57       1.0  0.46022  0.84683  0.01125  1.0000
  C   C86       1.0  0.52597  0.87258  0.97448  1.0000
  C   C87       1.0  0.54916  0.82526  0.90161  1.0000
  H   H58       1.0  0.57474  0.81909  0.87149  1.0000
  C   C88       1.0  0.50874  0.79382  0.90786  1.0000
  C   C89       1.0  0.55743  0.86414  0.93433  1.0000
  H   H59       1.0  0.58913  0.88817  0.92908  1.0000
  C   C90       1.0  0.47666  0.80252  0.94771  1.0000
  H   H60       1.0  0.44532  0.77817  0.95330  1.0000
  O   O28       1.0  0.00939  0.41963  0.55716  1.0000
  B   B28       1.0  0.03957  0.41245  0.51635  1.0000
  O   O29       1.0  0.48849  0.41754  0.44047  1.0000
  B   B29       1.0  0.45852  0.41141  0.48169  1.0000
  O   O30       1.0  0.99520  0.92480  0.94756  1.0000
  B   B30       1.0  0.96189  0.91541  0.98545  1.0000
  C   C91       1.0  0.01356  0.84302  0.01798  1.0000
  H   H61       1.0  0.03963  0.85035  0.98840  1.0000
  C   C92       1.0  0.97109  0.87246  0.02186  1.0000
  C   C93       1.0  0.94671  0.82336  0.09340  1.0000
  H   H62       1.0  0.91986  0.81567  0.12207  1.0000
  C   C94       1.0  0.98930  0.79459  0.08967  1.0000
  C   C95       1.0  0.93795  0.86172  0.06015  1.0000
  H   H63       1.0  0.90470  0.88371  0.06381  1.0000
  C   C96       1.0  0.02240  0.80488  0.05104  1.0000
  H   H64       1.0  0.05505  0.78212  0.04680  1.0000
  O   O31       1.0  0.00715  0.57753  0.94766  1.0000
  B   B31       1.0  0.03838  0.58452  0.98776  1.0000
  O   O32       1.0  0.50470  0.07508  0.44944  1.0000
  B   B32       1.0  0.53640  0.08329  0.48889  1.0000
  C   C97       1.0  0.48336  0.15453  0.52228  1.0000
  H   H65       1.0  0.45614  0.14558  0.49423  1.0000
  C   C98       1.0  0.52694  0.12655  0.52499  1.0000
  C   C99       1.0  0.55303  0.17898  0.59358  1.0000
  H   H66       1.0  0.58096  0.18861  0.62057  1.0000
  C   C100      1.0  0.50927  0.20605  0.59124  1.0000
  C   C101      1.0  0.56153  0.13983  0.56118  1.0000
  H   H67       1.0  0.59592  0.11953  0.56371  1.0000
  C   C102      1.0  0.47476  0.19337  0.55459  1.0000
  H   H68       1.0  0.44114  0.21481  0.55125  1.0000
  O   O33       1.0  0.07751  0.55238  0.99514  1.0000
  B   B33       1.0  0.08424  0.51225  0.96399  1.0000
  O   O34       1.0  0.57647  0.05212  0.49541  1.0000
  B   B34       1.0  0.58658  0.01485  0.46162  1.0000
  O   O35       1.0  0.91930  0.05461  0.50734  1.0000
  B   B35       1.0  0.91371  0.01367  0.53789  1.0000
  O   O36       1.0  0.42317  0.55236  0.00719  1.0000
  B   B36       1.0  0.41424  0.51396  0.03998  1.0000
  O   O37       1.0  0.42062  0.44475  0.49014  1.0000
  B   B37       1.0  0.41380  0.48498  0.45916  1.0000
  C   C103      1.0  0.34297  0.51891  0.51227  1.0000
  H   H69       1.0  0.35084  0.49028  0.53922  1.0000
  C   C104      1.0  0.37143  0.52164  0.46890  1.0000
  C   C105      1.0  0.32142  0.59176  0.44319  1.0000
  H   H70       1.0  0.31269  0.61911  0.41533  1.0000
  C   C106      1.0  0.29380  0.58941  0.48671  1.0000
  C   C107      1.0  0.35976  0.55862  0.43465  1.0000
  H   H71       1.0  0.38076  0.56117  0.40058  1.0000
  C   C108      1.0  0.30492  0.55198  0.52088  1.0000
  H   H72       1.0  0.28272  0.54851  0.55408  1.0000
  O   O38       1.0  0.92087  0.94552  0.99073  1.0000
  B   B38       1.0  0.91469  0.98687  0.96094  1.0000
  C   C109      1.0  0.84130  0.01831  0.01243  1.0000
  H   H73       1.0  0.84785  0.98817  0.03807  1.0000
  C   C110      1.0  0.87206  0.02348  0.97087  1.0000
  C   C111      1.0  0.82348  0.09555  0.94721  1.0000
  H   H74       1.0  0.81643  0.12488  0.92092  1.0000
  C   C112      1.0  0.79315  0.09028  0.98864  1.0000
  C   C113      1.0  0.86230  0.06288  0.93870  1.0000
  H   H75       1.0  0.88526  0.06773  0.90616  1.0000
  C   C114      1.0  0.80270  0.05083  0.02103  1.0000
  H   H76       1.0  0.77887  0.04533  0.05280  1.0000
  O   O39       1.0  0.57421  0.94807  0.00287  1.0000
  B   B39       1.0  0.58326  0.98620  0.03609  1.0000
  C   C115      1.0  0.65578  0.01950  0.98467  1.0000
  H   H77       1.0  0.64818  0.99080  0.95771  1.0000
  C   C116      1.0  0.62642  0.02249  0.02738  1.0000
  C   C117      1.0  0.67618  0.09297  0.05359  1.0000
  H   H78       1.0  0.68402  0.12096  0.08109  1.0000
  C   C118      1.0  0.70498  0.09005  0.01086  1.0000
  C   C119      1.0  0.63751  0.05979  0.06155  1.0000
  H   H79       1.0  0.61565  0.06266  0.09505  1.0000
  C   C120      1.0  0.69425  0.05247  0.97669  1.0000
  H   H80       1.0  0.71679  0.04916  0.94373  1.0000
  O   O40       1.0  0.07837  0.44489  0.50754  1.0000
  B   B40       1.0  0.08603  0.48513  0.53831  1.0000
  C   C121      1.0  0.15654  0.51895  0.48414  1.0000
  H   H81       1.0  0.14825  0.49036  0.45725  1.0000
  C   C122      1.0  0.12866  0.52152  0.52789  1.0000
  C   C123      1.0  0.17919  0.59159  0.55319  1.0000
  H   H82       1.0  0.18826  0.61896  0.58091  1.0000
  C   C124      1.0  0.20623  0.58941  0.50930  1.0000
  C   C125      1.0  0.14084  0.55840  0.56206  1.0000
  H   H83       1.0  0.12017  0.56078  0.59632  1.0000
  C   C126      1.0  0.19450  0.55223  0.47503  1.0000
  H   H84       1.0  0.21602  0.54921  0.44133  1.0000
  O   O41       1.0  0.55268  0.99204  0.07688  1.0000
  B   B41       1.0  0.51335  0.95996  0.08448  1.0000
  O   O42       1.0  0.05459  0.49274  0.57812  1.0000
  B   B42       1.0  0.01563  0.46065  0.58730  1.0000
  O   O43       1.0  0.05224  0.50500  0.92470  1.0000
  B   B43       1.0  0.01387  0.53773  0.91609  1.0000
  O   O44       1.0  0.55685  0.00983  0.42010  1.0000
  B   B44       1.0  0.51456  0.03828  0.41507  1.0000
  C   C127      1.0  0.48329  0.98762  0.34077  1.0000
  H   H85       1.0  0.51323  0.96180  0.34703  1.0000
  C   C128      1.0  0.47837  0.02880  0.37200  1.0000
  C   C129      1.0  0.40636  0.05325  0.32392  1.0000
  H   H86       1.0  0.37698  0.07952  0.31750  1.0000
  C   C130      1.0  0.41125  0.01213  0.29317  1.0000
  C   C131      1.0  0.43925  0.06125  0.36271  1.0000
  H   H87       1.0  0.43475  0.09348  0.38610  1.0000
  C   C132      1.0  0.45054  0.97956  0.30214  1.0000
  H   H88       1.0  0.45557  0.94795  0.27806  1.0000
  O   O45       1.0  0.44579  0.49232  0.41977  1.0000
  B   B45       1.0  0.48363  0.45900  0.41061  1.0000
  C   C133      1.0  0.52166  0.51413  0.34318  1.0000
  H   H89       1.0  0.49502  0.54234  0.35300  1.0000
  C   C134      1.0  0.52080  0.46870  0.36840  1.0000
  C   C135      1.0  0.58979  0.44205  0.31717  1.0000
  H   H90       1.0  0.61549  0.41327  0.30681  1.0000
  C   C136      1.0  0.59106  0.48764  0.29292  1.0000
  C   C137      1.0  0.55536  0.43294  0.35440  1.0000
  H   H91       1.0  0.55500  0.39730  0.37281  1.0000
  C   C138      1.0  0.55590  0.52331  0.30614  1.0000
  H   H92       1.0  0.55535  0.55832  0.28658  1.0000
  O   O46       1.0  0.94769  0.99514  0.92251  1.0000
  B   B46       1.0  0.98771  0.96401  0.91536  1.0000
  O   O47       1.0  0.94772  0.00521  0.57526  1.0000
  B   B47       1.0  0.98702  0.03750  0.58258  1.0000
  O   O48       1.0  0.44553  0.50742  0.08009  1.0000
  B   B48       1.0  0.48599  0.53832  0.08674  1.0000
  C   C139      1.0  0.52203  0.48438  0.15598  1.0000
  H   H93       1.0  0.49421  0.45681  0.14732  1.0000
  C   C140      1.0  0.52331  0.52859  0.12872  1.0000
  C   C141      1.0  0.59335  0.55471  0.17892  1.0000
  H   H94       1.0  0.62044  0.58277  0.18792  1.0000
  C   C142      1.0  0.59193  0.51065  0.20578  1.0000
  C   C143      1.0  0.55983  0.56327  0.14079  1.0000
  H   H95       1.0  0.56177  0.59770  0.12027  1.0000
  C   C144      1.0  0.55563  0.47560  0.19361  1.0000
  H   H96       1.0  0.55355  0.44146  0.21455  1.0000
  C   C145      1.0  0.00081  0.75085  0.12445  1.0000
  C   C146      1.0  0.49790  0.25061  0.62504  1.0000
  C   C147      1.0  0.00035  0.25025  0.37469  1.0000
  C   C148      1.0  0.49829  0.74917  0.87409  1.0000
  C   C149      1.0  0.12464  0.99999  0.74847  1.0000
  C   C150      1.0  0.62641  0.49938  0.24979  1.0000
  C   C151      1.0  0.37636  0.00112  0.24942  1.0000
  C   C152      1.0  0.87578  0.50009  0.75096  1.0000
  C   C153      1.0  0.74907  0.12460  0.99998  1.0000
  C   C154      1.0  0.25008  0.62401  0.49804  1.0000
  C   C155      1.0  0.24946  0.37509  0.00093  1.0000
  C   C156      1.0  0.74943  0.87427  0.49981  1.0000
  C   C157      1.0  0.04248  0.97289  0.68552  1.0000
  C   C158      1.0  0.08019  0.00117  0.70095  1.0000
  C  Sn1       1.0  0.09009  0.04657  0.67874  1.0000
  C  Sn2       1.0  0.05912  0.06388  0.64040  1.0000
  C   C159      1.0  0.01901  0.03533  0.62526  1.0000
  C   C160      1.0  0.01191  0.98995  0.64772  1.0000
  H   H97       1.0  0.03507  0.93779  0.70292  1.0000
  O  Te1       1.0  0.13039  0.07435  0.69459  1.0000
  O  Te2       1.0  0.06816  0.10913  0.61758  1.0000
  H   H98       1.0  0.98079  0.96808  0.63579  1.0000
  Mg  Mg1       1.0  0.12757  0.13361  0.65208  1.0000
  C   C161      1.0  0.83406  0.97345  0.47650  1.0000
  C   C162      1.0  0.86209  0.98050  0.51910  1.0000
  C  Sn3       1.0  0.85624  0.94910  0.55950  1.0000
  C  Sn4       1.0  0.82166  0.90994  0.55709  1.0000
  C   C163      1.0  0.79381  0.90317  0.51429  1.0000
  C   C164      1.0  0.79995  0.93482  0.47408  1.0000
  H   H99       1.0  0.83882  0.99792  0.44537  1.0000
  O  Te3       1.0  0.88453  0.95668  0.60179  1.0000
  O  Te4       1.0  0.81508  0.87799  0.59693  1.0000
  H   H100      1.0  0.77827  0.92934  0.44109  1.0000
  Mg  Mg2       1.0  0.86225  0.90337  0.64646  1.0000
  C   C165      1.0  0.68526  0.95467  0.52894  1.0000
  C   C166      1.0  0.70208  0.91640  0.49897  1.0000
  C  Sn5       1.0  0.68306  0.91023  0.45153  1.0000
  C  Sn6       1.0  0.64653  0.94305  0.43386  1.0000
  C   C167      1.0  0.62997  0.98124  0.46411  1.0000
  C   C168      1.0  0.64925  0.98707  0.51153  1.0000
  H   H101      1.0  0.70019  0.95920  0.56562  1.0000
  O  Te5       1.0  0.70026  0.87178  0.42208  1.0000
  O  Te6       1.0  0.62690  0.93773  0.38658  1.0000
  H   H102      1.0  0.63378  0.01673  0.53472  1.0000
  Mg  Mg3       1.0  0.66217  0.87966  0.36034  1.0000
  C   C169      1.0  0.97509  0.68934  0.04047  1.0000
  C   C170      1.0  0.00181  0.70345  0.08216  1.0000
  C  Sn7       1.0  0.04558  0.67940  0.09423  1.0000
  C  Sn8       1.0  0.06283  0.64053  0.06391  1.0000
  C   C171      1.0  0.03585  0.62672  0.02226  1.0000
  C   C172      1.0  0.99209  0.65102  0.01054  1.0000
  H   H103      1.0  0.94125  0.70815  0.03138  1.0000
  O  Te7       1.0  0.07181  0.69395  0.13603  1.0000
  O  Te8       1.0  0.10647  0.61589  0.07511  1.0000
  H   H104      1.0  0.97142  0.63956  0.97823  1.0000
  Mg  Mg4       1.0  0.12920  0.64913  0.13596  1.0000
  C   C173      1.0  0.06864  0.35100  0.43224  1.0000
  C   C174      1.0  0.03768  0.36938  0.46898  1.0000
  C  Sn9       1.0  0.99241  0.34678  0.47840  1.0000
  C  Sn10      1.0  0.97796  0.30500  0.45047  1.0000
  C   C175      1.0  0.00921  0.28688  0.41382  1.0000
  C   C176      1.0  0.05443  0.30979  0.40469  1.0000
  H   H105      1.0  0.10363  0.36871  0.42519  1.0000
  O  Te9       1.0  0.96192  0.36562  0.51523  1.0000
  O  Te10      1.0  0.93292  0.28170  0.45913  1.0000
  H   H106      1.0  0.07840  0.29554  0.37626  1.0000
  Mg  Mg5       1.0  0.90411  0.32111  0.51326  1.0000
  C   C177      1.0  0.04182  0.02736  0.81051  1.0000
  C   C178      1.0  0.08459  0.99920  0.79560  1.0000
  C  Sn11      1.0  0.09493  0.95450  0.81890  1.0000
  C  Sn12      1.0  0.06428  0.93778  0.85783  1.0000
  C   C179      1.0  0.02402  0.96621  0.87244  1.0000
  C   C180      1.0  0.01155  0.01089  0.84889  1.0000
  H   H107      1.0  0.03406  0.06192  0.79227  1.0000
  O  Te11      1.0  0.13536  0.92683  0.80356  1.0000
  O  Te12      1.0  0.07376  0.89323  0.88174  1.0000
  H   H108      1.0  0.98032  0.03267  0.86042  1.0000
  Mg  Mg6       1.0  0.13319  0.86863  0.84757  1.0000
  C   C181      1.0  0.33898  0.08290  0.18712  1.0000
  C   C182      1.0  0.34454  0.05271  0.22848  1.0000
  C  Sn13      1.0  0.31126  0.05575  0.26760  1.0000
  C  Sn14      1.0  0.27171  0.08968  0.26516  1.0000
  C   C183      1.0  0.26644  0.11969  0.22361  1.0000
  C   C184      1.0  0.29997  0.11635  0.18468  1.0000
  H   H109      1.0  0.36490  0.08030  0.15699  1.0000
  O  Te13      1.0  0.31738  0.02533  0.30865  1.0000
  O  Te14      1.0  0.23791  0.09347  0.30373  1.0000
  H   H110      1.0  0.29563  0.13971  0.15266  1.0000
  Mg  Mg7       1.0  0.26177  0.04414  0.35185  1.0000
  C   C185      1.0  0.22663  0.72421  0.58131  1.0000
  C   C186      1.0  0.26410  0.72428  0.61658  1.0000
  C  Sn15      1.0  0.30316  0.69114  0.61283  1.0000
  C  Sn16      1.0  0.30464  0.65734  0.57299  1.0000
  C   C187      1.0  0.26699  0.65759  0.53787  1.0000
  C   C188      1.0  0.22807  0.69091  0.54198  1.0000
  H   H111      1.0  0.19653  0.75001  0.58447  1.0000
  O  Te15      1.0  0.34028  0.69169  0.64840  1.0000
  O  Te16      1.0  0.34326  0.62383  0.56834  1.0000
  H   H112      1.0  0.19908  0.69087  0.51465  1.0000
  Mg  Mg8       1.0  0.38519  0.63885  0.62611  1.0000
  C   C189      1.0  0.20619  0.06403  0.72145  1.0000
  C   C190      1.0  0.16992  0.04432  0.75223  1.0000
  C  Sn17      1.0  0.16044  0.06568  0.79809  1.0000
  C  Sn18      1.0  0.18783  0.10755  0.81330  1.0000
  C   C191      1.0  0.22402  0.12701  0.78221  1.0000
  C   C192      1.0  0.23321  0.10534  0.73641  1.0000
  H   H113      1.0  0.21329  0.04728  0.68599  1.0000
  O  Te17      1.0  0.12408  0.04551  0.82840  1.0000
  O  Te18      1.0  0.17910  0.12964  0.85893  1.0000
  H   H114      1.0  0.26128  0.12063  0.71256  1.0000
  Mg  Mg9       1.0  0.12574  0.08867  0.88722  1.0000
  C   C193      1.0  0.10604  0.81695  0.17659  1.0000
  C   C194      1.0  0.11997  0.78996  0.21816  1.0000
  C  Sn19      1.0  0.09628  0.74565  0.22951  1.0000
  C  Sn20      1.0  0.05795  0.72814  0.19860  1.0000
  C   C195      1.0  0.04430  0.75540  0.15708  1.0000
  C   C196      1.0  0.06824  0.79969  0.14607  1.0000
  H   H115      1.0  0.12458  0.85121  0.16806  1.0000
  O  Te19      1.0  0.11066  0.71915  0.27120  1.0000
  O  Te20      1.0  0.03366  0.68396  0.20908  1.0000
  H   H116      1.0  0.05746  0.82057  0.11387  1.0000
  Mg  Mg10      1.0  0.06647  0.66104  0.27005  1.0000
  C   C197      1.0  0.95761  0.52795  0.68741  1.0000
  C   C198      1.0  0.91771  0.49939  0.70308  1.0000
  C  Sn21      1.0  0.90905  0.45315  0.68218  1.0000
  C  Sn22      1.0  0.94099  0.43526  0.64494  1.0000
  C   C199      1.0  0.98081  0.46410  0.62955  1.0000
  C   C200      1.0  0.98914  0.51033  0.65069  1.0000
  H   H117      1.0  0.96406  0.56370  0.70379  1.0000
  O  Te21      1.0  0.86901  0.42510  0.69825  1.0000
  O  Te22      1.0  0.93319  0.38916  0.62344  1.0000
  H   H118      1.0  0.02004  0.53242  0.63858  1.0000
  Mg  Mg11      1.0  0.87366  0.36462  0.65773  1.0000
  C   C201      1.0  0.89267  0.68777  0.17419  1.0000
  C   C202      1.0  0.87951  0.71425  0.21631  1.0000
  C  Sn23      1.0  0.90522  0.75698  0.22919  1.0000
  C  Sn24      1.0  0.94480  0.77341  0.19925  1.0000
  C   C203      1.0  0.95765  0.74668  0.15717  1.0000
  C   C204      1.0  0.93169  0.70397  0.14464  1.0000
  H   H119      1.0  0.87257  0.65474  0.16447  1.0000
  O  Te23      1.0  0.89161  0.78299  0.27141  1.0000
  O  Te24      1.0  0.97111  0.81600  0.21126  1.0000
  H   H120      1.0  0.94186  0.68349  0.11200  1.0000
  Mg  Mg12      1.0  0.93864  0.83882  0.27243  1.0000
  C   C205      1.0  0.33040  0.41220  0.06446  1.0000
  C   C206      1.0  0.29680  0.41101  0.02549  1.0000
  C  Sn25      1.0  0.30160  0.44327  0.98608  1.0000
  C  Sn26      1.0  0.34082  0.47787  0.98577  1.0000
  C   C207      1.0  0.37426  0.47929  0.02492  1.0000
  C   C208      1.0  0.36910  0.44630  0.06418  1.0000
  H   H121      1.0  0.32643  0.38667  0.09482  1.0000
  O  Te25      1.0  0.26769  0.44159  0.94745  1.0000
  O  Te26      1.0  0.34649  0.51107  0.94684  1.0000
  H   H122      1.0  0.39514  0.44721  0.09433  1.0000
  Mg  Mg13      1.0  0.29090  0.49441  0.90267  1.0000
  C   C209      1.0  0.93328  0.56934  0.85093  1.0000
  C   C210      1.0  0.96816  0.53760  0.87141  1.0000
  C  Sn27      1.0  0.97675  0.49151  0.85025  1.0000
  C  Sn28      1.0  0.94988  0.47703  0.80780  1.0000
  C   C211      1.0  0.91510  0.50907  0.78757  1.0000
  C   C212      1.0  0.90678  0.55510  0.80905  1.0000
  H   H123      1.0  0.92686  0.60496  0.86753  1.0000
  O  Te27      1.0  0.01171  0.46024  0.87119  1.0000
  O  Te28      1.0  0.95775  0.43118  0.78590  1.0000
  H   H124      1.0  0.87980  0.57968  0.79317  1.0000
  Mg  Mg14      1.0  0.00928  0.40148  0.82800  1.0000
  C   C213      1.0  0.22419  0.91568  0.77156  1.0000
  C   C214      1.0  0.22383  0.88044  0.73403  1.0000
  C  Sn29      1.0  0.19107  0.88477  0.69460  1.0000
  C  Sn30      1.0  0.15811  0.92518  0.69279  1.0000
  C   C215      1.0  0.15878  0.96026  0.73049  1.0000
  C   C216      1.0  0.19170  0.95556  0.76980  1.0000
  H   H125      1.0  0.24968  0.91206  0.80196  1.0000
  O  Te29      1.0  0.19118  0.84923  0.65742  1.0000
  O  Te30      1.0  0.12499  0.93042  0.65379  1.0000
  H   H126      1.0  0.19199  0.98287  0.79883  1.0000
  Mg  Mg15      1.0  0.13916  0.87243  0.61193  1.0000
  C   C217      1.0  0.60246  0.31775  0.67725  1.0000
  C   C218      1.0  0.61751  0.29032  0.71813  1.0000
  C  Sn31      1.0  0.59442  0.24567  0.72939  1.0000
  C  Sn32      1.0  0.55557  0.22825  0.69907  1.0000
  C   C219      1.0  0.54081  0.25595  0.65823  1.0000
  C   C220      1.0  0.56415  0.30059  0.64732  1.0000
  H   H127      1.0  0.62053  0.35228  0.66878  1.0000
  O  Te31      1.0  0.60990  0.21874  0.77039  1.0000
  O  Te32      1.0  0.53187  0.18374  0.70947  1.0000
  H   H128      1.0  0.55251  0.32180  0.61564  1.0000
  Mg  Mg16      1.0  0.56616  0.16028  0.76940  1.0000
  C   C221      1.0  0.45799  0.02760  0.18512  1.0000
  C   C222      1.0  0.41772  0.99990  0.20134  1.0000
  C  Sn33      1.0  0.41017  0.95391  0.18050  1.0000
  C  Sn34      1.0  0.44112  0.93540  0.14273  1.0000
  C   C223      1.0  0.48134  0.96338  0.12678  1.0000
  C   C224      1.0  0.48856  0.00936  0.14789  1.0000
  H   H129      1.0  0.46550  0.06317  0.20147  1.0000
  O  Te33      1.0  0.36977  0.92672  0.19712  1.0000
  O  Te34      1.0  0.43197  0.88954  0.12126  1.0000
  H   H130      1.0  0.51976  0.03079  0.13534  1.0000
  Mg  Mg17      1.0  0.37245  0.86625  0.15641  1.0000
  C   C225      1.0  0.52408  0.31033  0.53983  1.0000
  C   C226      1.0  0.49684  0.29714  0.58150  1.0000
  C  Sn35      1.0  0.45171  0.31971  0.59111  1.0000
  C  Sn36      1.0  0.43359  0.35613  0.55832  1.0000
  C   C227      1.0  0.46111  0.36904  0.51671  1.0000
  C   C228      1.0  0.50623  0.34624  0.50745  1.0000
  H   H131      1.0  0.55898  0.29267  0.53265  1.0000
  O  Te35      1.0  0.42497  0.30611  0.63293  1.0000
  O  Te36      1.0  0.38859  0.37926  0.56703  1.0000
  H   H132      1.0  0.52730  0.35644  0.47517  1.0000
  Mg  Mg18      1.0  0.36565  0.34816  0.62896  1.0000
  C   C229      1.0  0.07999  0.18594  0.33704  1.0000
  C   C230      1.0  0.05150  0.22829  0.34313  1.0000
  C  Sn37      1.0  0.05790  0.26860  0.31172  1.0000
  C  Sn38      1.0  0.09351  0.26637  0.27355  1.0000
  C   C231      1.0  0.12180  0.22382  0.26775  1.0000
  C   C232      1.0  0.11510  0.18370  0.29939  1.0000
  H   H133      1.0  0.07479  0.15489  0.36151  1.0000
  O  Te37      1.0  0.02914  0.31063  0.31833  1.0000
  O  Te38      1.0  0.10065  0.30612  0.24163  1.0000
  H   H134      1.0  0.13715  0.15091  0.29465  1.0000
  Mg  Mg19      1.0  0.05251  0.35527  0.26547  1.0000
  C   C233      1.0  0.70698  0.56398  0.22125  1.0000
  C   C234      1.0  0.67186  0.54376  0.25303  1.0000
  C  Sn39      1.0  0.66259  0.56563  0.29869  1.0000
  C  Sn40      1.0  0.68901  0.60854  0.31268  1.0000
  C   C235      1.0  0.72405  0.62850  0.28061  1.0000
  C   C236      1.0  0.73305  0.60631  0.23502  1.0000
  H   H135      1.0  0.71393  0.54683  0.18596  1.0000
  O  Te39      1.0  0.62738  0.54494  0.33001  1.0000
  O  Te40      1.0  0.68046  0.63115  0.35809  1.0000
  H   H136      1.0  0.76022  0.62199  0.21040  1.0000
  Mg  Mg20      1.0  0.62884  0.58914  0.38805  1.0000
  C   C237      1.0  0.41916  0.18628  0.66516  1.0000
  C   C238      1.0  0.44711  0.22890  0.65770  1.0000
  C  Sn41      1.0  0.44065  0.26984  0.68818  1.0000
  C  Sn42      1.0  0.40553  0.26795  0.72683  1.0000
  C   C239      1.0  0.37777  0.22512  0.73402  1.0000
  C   C240      1.0  0.38452  0.18438  0.70329  1.0000
  H   H137      1.0  0.42440  0.15474  0.64141  1.0000
  O  Te41      1.0  0.46887  0.31214  0.68020  1.0000
  O  Te42      1.0  0.39833  0.30833  0.75786  1.0000
  H   H138      1.0  0.36290  0.15137  0.70910  1.0000
  Mg  Mg21      1.0  0.44565  0.35765  0.73223  1.0000
  C   C241      1.0  0.83744  0.58135  0.68860  1.0000
  C   C242      1.0  0.84359  0.55136  0.73002  1.0000
  C  Sn43      1.0  0.81268  0.55665  0.77081  1.0000
  C  Sn44      1.0  0.77494  0.59266  0.77001  1.0000
  C   C243      1.0  0.76906  0.62245  0.72839  1.0000
  C   C244      1.0  0.80021  0.61686  0.68778  1.0000
  H   H139      1.0  0.86152  0.57701  0.65717  1.0000
  O  Te43      1.0  0.81935  0.52640  0.81189  1.0000
  O  Te44      1.0  0.74352  0.59871  0.81027  1.0000
  H   H140      1.0  0.79542  0.64006  0.65571  1.0000
  Mg  Mg22      1.0  0.76724  0.54869  0.85773  1.0000
  C   C245      1.0  0.18684  0.45706  0.02858  1.0000
  C   C246      1.0  0.20195  0.41683  0.00030  1.0000
  C  Sn45      1.0  0.17955  0.40646  0.95500  1.0000
  C  Sn46      1.0  0.14134  0.43755  0.93778  1.0000
  C   C247      1.0  0.12652  0.47773  0.96633  1.0000
  C   C248      1.0  0.14918  0.48776  0.01161  1.0000
  H   H141      1.0  0.20438  0.46442  0.06361  1.0000
  O  Te45      1.0  0.19508  0.36610  0.92722  1.0000
  O  Te46      1.0  0.11834  0.42859  0.89263  1.0000
  H   H142      1.0  0.13750  0.51893  0.03348  1.0000
  Mg  Mg23      1.0  0.15241  0.36906  0.86811  1.0000
  C   C249      1.0  0.22062  0.29361  0.93765  1.0000
  C   C250      1.0  0.25195  0.32980  0.95666  1.0000
  C  Sn47      1.0  0.29734  0.33917  0.93432  1.0000
  C  Sn48      1.0  0.31152  0.31175  0.89217  1.0000
  C   C251      1.0  0.27990  0.27564  0.87341  1.0000
  C   C252      1.0  0.23457  0.26656  0.89606  1.0000
  H   H143      1.0  0.18554  0.28659  0.95515  1.0000
  O  Te47      1.0  0.32820  0.37545  0.95381  1.0000
  O  Te48      1.0  0.35666  0.32038  0.86911  1.0000
  H   H144      1.0  0.21031  0.23855  0.88131  1.0000
  Mg  Mg24      1.0  0.38602  0.37365  0.90941  1.0000
