data_image0
_chemical_formula_structural       BO2C2H6BO2C2H6BO2C2H6BO2C2H6BO2C2H6BO2C2H6BO2C2H6BO2C2H6BO2C2H6BO2C2H6BO2C2H6BO2C2H6BO2C2H6BO2C2H6BO2C2H6BO2C2H6BO2C2H6BO2C2H6BO2C2H6BO2C2H6BO2C2H6BO2C2H6BO2C2H6BO2C2H6BO2C2H6BO2C2H6BO2C2H6BO2C2H6BO2C2H6BO2C2H6BO2C2H6BO2C2H6BO2C2H6BO2C2H6BO2C2H6BO2C2H6BO2C2H6BO2C2H6BO2C2H6BO2C2H6BO2C2H6BO2C2H6BO2C2H6BO2C2H6BO2C2H6BO2C2H6BO2C2H6BO2C2H6SiC2Si2C2Si2C2Si2C2Si2C2Si2C2Si2C2Si2C2Si2C2Si2C2Si2C2Si2C2Si2C2Si2C2Si2C2Si2C2SiC12SnCSn2CSnTe4Mg2SnCSn2CSnTe4Mg2SnCSn2CSnTe4Mg2SnCSn2CSnTe4Mg2SnCSn2CSnTe4Mg2SnCSn2CSnTe4Mg2SnCSn2CSnTe4Mg2SnCSn2CSnTe4Mg2SnCSn2CSnTe4Mg2SnCSn2CSnTe4Mg2SnCSn2CSnTe4Mg2SnCSn2CSnTe4Mg2SnCSn2CSnTe4Mg2SnCSn2CSnTe4Mg2SnCSn2CSnTe4Mg2SnCSn2CSnTe4Mg2SnCSn2CSnTe4Mg2SnCSn2CSnTe4Mg2SnCSn2CSnTe4Mg2SnCSn2CSnTe4Mg2SnCSn2CSnTe4Mg2SnCSn2CSnTe4Mg2SnCSn2CSnTe4Mg2SnCSn2CSnTe4Mg2SnCSn2CSnTe4Mg2SnCSn2CSnTe4Mg2SnCSn2CSnTe4Mg2SnCSn2CSnTe4Mg2SnCSn2CSnTe4Mg2SnCSn2CSnTe4Mg2SnCSn2CSnTe4Mg2SnCSn2CSnTe4Mg2SnCSn2CSnTe4Mg2SnCSn2CSnTe4Mg2SnCSn2CSnTe4Mg2SnCSn2CSnTe4Mg2SnCSn2CSnTe4Mg2SnCSn2CSnTe4Mg2SnCSn2CSnTe4Mg2SnCSn2CSnTe4Mg2SnCSn2CSnTe4Mg2SnCSn2CSnTe4Mg2SnCSn2CSnTe4Mg2SnCSn2CSnTe4Mg2SnCSn2CSnTe4Mg2SnCSn2CSnTe4Mg2SnCSn2CSnTe4Mg2SnCSn2CSnTe4Mg2
_chemical_formula_sum              "B48 O96 C236 H288 Si32 Sn192 Te192 Mg96"
_cell_length_a       30.2638
_cell_length_b       30.0914
_cell_length_c       30.082
_cell_angle_alpha    90.1298
_cell_angle_beta     90.4962
_cell_angle_gamma    90.2898

_symmetry_space_group_name_H-M    'P1'
_space_group_IT_number       1

loop_
  _space_group_symop_operation_xyz
  'x, y, z'

loop_
  _atom_site_type_symbol
  _atom_site_label
  _atom_site_symmetry_multiplicity
  _atom_site_fract_x
  _atom_site_fract_y
  _atom_site_fract_z
  _atom_site_occupancy
  B   B1        1.0  0.75164  0.64579  0.27976  1.0000
  O   O1        1.0  0.74967  0.68299  0.25272  1.0000
  O   O2        1.0  0.78157  0.64288  0.31469  1.0000
  C   C1        1.0  0.73594  0.75905  0.17570  1.0000
  C   C2        1.0  0.87312  0.59124  0.33939  1.0000
  H   H1        1.0  0.71501  0.77929  0.15362  1.0000
  H   H2        1.0  0.77056  0.76525  0.16680  1.0000
  H   H3        1.0  0.72849  0.72393  0.16876  1.0000
  H   H4        1.0  0.89394  0.56963  0.36025  1.0000
  H   H5        1.0  0.84310  0.57248  0.33045  1.0000
  H   H6        1.0  0.89123  0.59818  0.30867  1.0000
  B   B2        1.0  0.25405  0.14872  0.78173  1.0000
  O   O3        1.0  0.25207  0.18573  0.75451  1.0000
  O   O4        1.0  0.28580  0.14505  0.81492  1.0000
  C   C3        1.0  0.23729  0.25984  0.67674  1.0000
  C   C4        1.0  0.37767  0.09352  0.83997  1.0000
  H   H7        1.0  0.21657  0.28043  0.65477  1.0000
  H   H8        1.0  0.27178  0.26404  0.66638  1.0000
  H   H9        1.0  0.22791  0.22494  0.67120  1.0000
  H   H10       1.0  0.39848  0.07208  0.86103  1.0000
  H   H11       1.0  0.34779  0.07459  0.83093  1.0000
  H   H12       1.0  0.39595  0.10044  0.80934  1.0000
  B   B3        1.0  0.74972  0.35001  0.78340  1.0000
  O   O5        1.0  0.75241  0.31266  0.75658  1.0000
  O   O6        1.0  0.71871  0.35304  0.81687  1.0000
  C   C5        1.0  0.76346  0.23601  0.67928  1.0000
  C   C6        1.0  0.63097  0.40942  0.84244  1.0000
  H   H13       1.0  0.78333  0.21407  0.65807  1.0000
  H   H14       1.0  0.72882  0.23291  0.66844  1.0000
  H   H15       1.0  0.77419  0.27037  0.67318  1.0000
  H   H16       1.0  0.61069  0.43124  0.86336  1.0000
  H   H17       1.0  0.66231  0.42674  0.83606  1.0000
  H   H18       1.0  0.61362  0.40507  0.81049  1.0000
  B   B4        1.0  0.24639  0.85501  0.28276  1.0000
  O   O7        1.0  0.24785  0.81713  0.25652  1.0000
  O   O8        1.0  0.21607  0.85933  0.31670  1.0000
  C   C7        1.0  0.25848  0.73935  0.18095  1.0000
  C   C8        1.0  0.12614  0.91246  0.34256  1.0000
  H   H19       1.0  0.27851  0.71826  0.15908  1.0000
  H   H20       1.0  0.22359  0.73409  0.17192  1.0000
  H   H21       1.0  0.26684  0.77416  0.17379  1.0000
  H   H22       1.0  0.10633  0.93472  0.36349  1.0000
  H   H23       1.0  0.15595  0.93076  0.33265  1.0000
  H   H24       1.0  0.10675  0.90502  0.31239  1.0000
  B   B5        1.0  0.24885  0.14962  0.21746  1.0000
  O   O9        1.0  0.25239  0.18740  0.24363  1.0000
  O   O10       1.0  0.21624  0.14521  0.18518  1.0000
  C   C9        1.0  0.26640  0.26140  0.32359  1.0000
  C   C10       1.0  0.12553  0.09270  0.15844  1.0000
  H   H25       1.0  0.28746  0.28204  0.34549  1.0000
  H   H26       1.0  0.23206  0.26532  0.33442  1.0000
  H   H27       1.0  0.27573  0.22655  0.32877  1.0000
  H   H28       1.0  0.10497  0.07144  0.13664  1.0000
  H   H29       1.0  0.15589  0.07440  0.16636  1.0000
  H   H30       1.0  0.10744  0.09782  0.18952  1.0000
  B   B6        1.0  0.74646  0.64489  0.71675  1.0000
  O   O11       1.0  0.74999  0.68265  0.74309  1.0000
  O   O12       1.0  0.71454  0.64072  0.68357  1.0000
  C   C11       1.0  0.76607  0.75795  0.82092  1.0000
  C   C12       1.0  0.62211  0.59012  0.66000  1.0000
  H   H31       1.0  0.78739  0.77830  0.84283  1.0000
  H   H32       1.0  0.73165  0.76343  0.83075  1.0000
  H   H33       1.0  0.77394  0.72288  0.82709  1.0000
  H   H34       1.0  0.59941  0.56940  0.63989  1.0000
  H   H35       1.0  0.65234  0.57090  0.66592  1.0000
  H   H36       1.0  0.60640  0.59600  0.69225  1.0000
  B   B7        1.0  0.25236  0.85639  0.71880  1.0000
  O   O13       1.0  0.25009  0.81884  0.74533  1.0000
  O   O14       1.0  0.28339  0.86080  0.68545  1.0000
  C   C13       1.0  0.23576  0.74504  0.82377  1.0000
  C   C14       1.0  0.37747  0.90842  0.66052  1.0000
  H   H37       1.0  0.21532  0.72506  0.84638  1.0000
  H   H38       1.0  0.27055  0.73983  0.83301  1.0000
  H   H39       1.0  0.22803  0.78020  0.82959  1.0000
  H   H40       1.0  0.39910  0.92888  0.63948  1.0000
  H   H41       1.0  0.34876  0.92867  0.66941  1.0000
  H   H42       1.0  0.39579  0.90080  0.69123  1.0000
  B   B8        1.0  0.75127  0.34830  0.21726  1.0000
  O   O15       1.0  0.74967  0.31218  0.24566  1.0000
  O   O16       1.0  0.78158  0.35065  0.18315  1.0000
  C   C15       1.0  0.73621  0.23811  0.32497  1.0000
  C   C16       1.0  0.87150  0.40471  0.16121  1.0000
  H   H43       1.0  0.71577  0.21778  0.34729  1.0000
  H   H44       1.0  0.77095  0.23332  0.33461  1.0000
  H   H45       1.0  0.72794  0.27313  0.33080  1.0000
  H   H46       1.0  0.89257  0.42642  0.14085  1.0000
  H   H47       1.0  0.84049  0.42240  0.16742  1.0000
  H   H48       1.0  0.88835  0.39987  0.19332  1.0000
  B   B9        1.0  0.27946  0.75394  0.64861  1.0000
  O   O17       1.0  0.25233  0.75205  0.68547  1.0000
  O   O18       1.0  0.31235  0.78579  0.64480  1.0000
  C   C17       1.0  0.17726  0.73923  0.76354  1.0000
  C   C18       1.0  0.33791  0.87799  0.59256  1.0000
  H   H49       1.0  0.15615  0.71904  0.78536  1.0000
  H   H50       1.0  0.16806  0.77421  0.76808  1.0000
  H   H51       1.0  0.16952  0.72986  0.72902  1.0000
  H   H52       1.0  0.35895  0.89829  0.57078  1.0000
  H   H53       1.0  0.32769  0.84825  0.57379  1.0000
  H   H54       1.0  0.30815  0.89731  0.59994  1.0000
  B   B10       1.0  0.78183  0.24657  0.14983  1.0000
  O   O19       1.0  0.75474  0.24507  0.18679  1.0000
  O   O20       1.0  0.81632  0.27683  0.14657  1.0000
  C   C19       1.0  0.67834  0.23141  0.26430  1.0000
  C   C20       1.0  0.83928  0.36859  0.09219  1.0000
  H   H55       1.0  0.66859  0.26622  0.26895  1.0000
  H   H56       1.0  0.67099  0.22214  0.22967  1.0000
  H   H57       1.0  0.65738  0.21080  0.28586  1.0000
  H   H58       1.0  0.85951  0.39048  0.07117  1.0000
  H   H59       1.0  0.83342  0.33752  0.07377  1.0000
  H   H60       1.0  0.80724  0.38480  0.09703  1.0000
  B   B11       1.0  0.78081  0.74709  0.35145  1.0000
  O   O21       1.0  0.75428  0.74950  0.31374  1.0000
  O   O22       1.0  0.81456  0.71641  0.35526  1.0000
  C   C21       1.0  0.67804  0.76228  0.23569  1.0000
  C   C22       1.0  0.83640  0.62298  0.40744  1.0000
  H   H61       1.0  0.65667  0.78297  0.21445  1.0000
  H   H62       1.0  0.66885  0.72737  0.22990  1.0000
  H   H63       1.0  0.67070  0.77036  0.27048  1.0000
  H   H64       1.0  0.85632  0.60100  0.42879  1.0000
  H   H65       1.0  0.82869  0.65292  0.42677  1.0000
  H   H66       1.0  0.80519  0.60570  0.39980  1.0000
  B   B12       1.0  0.28508  0.24925  0.85254  1.0000
  O   O23       1.0  0.25893  0.25215  0.81462  1.0000
  O   O24       1.0  0.31868  0.21835  0.85665  1.0000
  C   C23       1.0  0.18189  0.26710  0.73863  1.0000
  C   C24       1.0  0.34056  0.12543  0.90781  1.0000
  H   H67       1.0  0.16052  0.28797  0.71758  1.0000
  H   H68       1.0  0.17128  0.23240  0.73416  1.0000
  H   H69       1.0  0.17611  0.27639  0.77343  1.0000
  H   H70       1.0  0.36065  0.10401  0.92958  1.0000
  H   H71       1.0  0.33229  0.15550  0.92668  1.0000
  H   H72       1.0  0.30964  0.10762  0.90017  1.0000
  B   B13       1.0  0.21661  0.25054  0.14831  1.0000
  O   O25       1.0  0.24323  0.25449  0.18580  1.0000
  O   O26       1.0  0.18336  0.21887  0.14504  1.0000
  C   C25       1.0  0.32129  0.27018  0.26144  1.0000
  C   C26       1.0  0.16116  0.12821  0.09162  1.0000
  H   H73       1.0  0.33250  0.23579  0.26583  1.0000
  H   H74       1.0  0.32670  0.27947  0.22661  1.0000
  H   H75       1.0  0.34245  0.29173  0.28235  1.0000
  H   H76       1.0  0.14120  0.10698  0.06925  1.0000
  H   H77       1.0  0.16857  0.15919  0.07386  1.0000
  H   H78       1.0  0.19252  0.11109  0.09810  1.0000
  B   B14       1.0  0.71640  0.74595  0.64603  1.0000
  O   O27       1.0  0.74346  0.74854  0.68331  1.0000
  O   O28       1.0  0.68306  0.71441  0.64256  1.0000
  C   C27       1.0  0.82228  0.76240  0.75936  1.0000
  C   C28       1.0  0.65423  0.62424  0.59062  1.0000
  H   H79       1.0  0.84426  0.78319  0.78016  1.0000
  H   H80       1.0  0.83163  0.72754  0.76450  1.0000
  H   H81       1.0  0.82860  0.77073  0.72444  1.0000
  H   H82       1.0  0.63220  0.60365  0.56965  1.0000
  H   H83       1.0  0.66149  0.65494  0.57234  1.0000
  H   H84       1.0  0.68535  0.60610  0.59511  1.0000
  B   B15       1.0  0.71632  0.24990  0.85372  1.0000
  O   O29       1.0  0.74303  0.24752  0.81663  1.0000
  O   O30       1.0  0.68307  0.28121  0.85706  1.0000
  C   C29       1.0  0.81868  0.22767  0.74211  1.0000
  C   C30       1.0  0.66356  0.37230  0.91038  1.0000
  H   H85       1.0  0.83896  0.20539  0.72168  1.0000
  H   H86       1.0  0.83087  0.26175  0.73725  1.0000
  H   H87       1.0  0.82419  0.21882  0.77712  1.0000
  H   H88       1.0  0.64432  0.39433  0.93207  1.0000
  H   H89       1.0  0.66901  0.34102  0.92829  1.0000
  H   H90       1.0  0.69590  0.38808  0.90510  1.0000
  B   B16       1.0  0.21789  0.75630  0.35686  1.0000
  O   O31       1.0  0.24335  0.75394  0.31889  1.0000
  O   O32       1.0  0.18526  0.78795  0.36162  1.0000
  C   C31       1.0  0.31707  0.73484  0.24117  1.0000
  C   C32       1.0  0.16516  0.88209  0.41043  1.0000
  H   H91       1.0  0.32738  0.76936  0.23523  1.0000
  H   H92       1.0  0.32457  0.72690  0.27605  1.0000
  H   H93       1.0  0.33745  0.71319  0.22017  1.0000
  H   H94       1.0  0.14580  0.90411  0.43203  1.0000
  H   H95       1.0  0.17402  0.85253  0.42984  1.0000
  H   H96       1.0  0.19583  0.89968  0.40196  1.0000
  B   B17       1.0  0.64662  0.28366  0.75181  1.0000
  O   O33       1.0  0.68333  0.25644  0.74987  1.0000
  O   O34       1.0  0.64309  0.31669  0.78376  1.0000
  C   C33       1.0  0.75386  0.17466  0.73574  1.0000
  C   C34       1.0  0.59358  0.34188  0.87513  1.0000
  H   H97       1.0  0.77343  0.15185  0.71517  1.0000
  H   H98       1.0  0.75779  0.16441  0.77057  1.0000
  H   H99       1.0  0.71894  0.17024  0.72638  1.0000
  H   H100      1.0  0.57361  0.36297  0.89708  1.0000
  H   H101      1.0  0.57466  0.33643  0.84426  1.0000
  H   H102      1.0  0.59775  0.30958  0.89154  1.0000
  B   B18       1.0  0.14405  0.78348  0.25726  1.0000
  O   O35       1.0  0.18118  0.75685  0.25448  1.0000
  O   O36       1.0  0.14083  0.81696  0.28875  1.0000
  C   C35       1.0  0.25443  0.67892  0.23919  1.0000
  C   C36       1.0  0.09512  0.84532  0.38227  1.0000
  H   H103      1.0  0.27352  0.65643  0.21784  1.0000
  H   H104      1.0  0.26097  0.66962  0.27392  1.0000
  H   H105      1.0  0.21920  0.67293  0.23225  1.0000
  H   H106      1.0  0.07528  0.86679  0.40397  1.0000
  H   H107      1.0  0.07465  0.83635  0.35327  1.0000
  H   H108      1.0  0.10249  0.81473  0.40071  1.0000
  B   B19       1.0  0.35182  0.78320  0.74759  1.0000
  O   O37       1.0  0.31426  0.75685  0.75017  1.0000
  O   O38       1.0  0.35522  0.81719  0.71689  1.0000
  C   C37       1.0  0.23772  0.68181  0.76835  1.0000
  C   C38       1.0  0.40508  0.83870  0.62329  1.0000
  H   H109      1.0  0.23164  0.67109  0.73390  1.0000
  H   H110      1.0  0.27248  0.67502  0.77653  1.0000
  H   H111      1.0  0.21712  0.66102  0.79009  1.0000
  H   H112      1.0  0.42678  0.85864  0.60185  1.0000
  H   H113      1.0  0.42420  0.82942  0.65302  1.0000
  H   H114      1.0  0.39646  0.80807  0.60520  1.0000
  B   B20       1.0  0.85197  0.27919  0.25035  1.0000
  O   O39       1.0  0.81492  0.25216  0.25291  1.0000
  O   O40       1.0  0.85508  0.31263  0.21894  1.0000
  C   C39       1.0  0.73994  0.17505  0.26955  1.0000
  C   C40       1.0  0.90777  0.33681  0.12845  1.0000
  H   H115      1.0  0.72004  0.15387  0.29157  1.0000
  H   H116      1.0  0.73386  0.16402  0.23520  1.0000
  H   H117      1.0  0.77492  0.16915  0.27750  1.0000
  H   H118      1.0  0.92888  0.35796  0.10756  1.0000
  H   H119      1.0  0.92573  0.33043  0.15965  1.0000
  H   H120      1.0  0.90313  0.30492  0.11115  1.0000
  B   B21       1.0  0.14760  0.21861  0.24954  1.0000
  O   O41       1.0  0.18505  0.24521  0.25242  1.0000
  O   O42       1.0  0.14313  0.18541  0.21775  1.0000
  C   C41       1.0  0.25842  0.32454  0.26876  1.0000
  C   C42       1.0  0.09218  0.16159  0.12414  1.0000
  H   H121      1.0  0.27827  0.34616  0.29085  1.0000
  H   H122      1.0  0.26340  0.33589  0.23448  1.0000
  H   H123      1.0  0.22348  0.32946  0.27697  1.0000
  H   H124      1.0  0.07158  0.14117  0.10159  1.0000
  H   H125      1.0  0.07293  0.16809  0.15423  1.0000
  H   H126      1.0  0.09833  0.19353  0.10765  1.0000
  B   B22       1.0  0.64747  0.71692  0.74747  1.0000
  O   O43       1.0  0.68514  0.74319  0.75016  1.0000
  O   O44       1.0  0.64301  0.68313  0.71640  1.0000
  C   C43       1.0  0.76209  0.82006  0.76456  1.0000
  C   C44       1.0  0.58842  0.65960  0.62750  1.0000
  H   H127      1.0  0.78325  0.84120  0.78588  1.0000
  H   H128      1.0  0.76732  0.83021  0.72993  1.0000
  H   H129      1.0  0.72755  0.82706  0.77292  1.0000
  H   H130      1.0  0.56583  0.63957  0.60661  1.0000
  H   H131      1.0  0.57151  0.66679  0.65885  1.0000
  H   H132      1.0  0.59419  0.69129  0.61040  1.0000
  B   B23       1.0  0.85184  0.71652  0.25190  1.0000
  O   O45       1.0  0.81494  0.74349  0.24942  1.0000
  O   O46       1.0  0.85519  0.68298  0.28317  1.0000
  C   C45       1.0  0.73846  0.82051  0.23312  1.0000
  C   C46       1.0  0.90522  0.65939  0.37711  1.0000
  H   H133      1.0  0.71791  0.84175  0.21160  1.0000
  H   H134      1.0  0.73236  0.83016  0.26776  1.0000
  H   H135      1.0  0.77323  0.82785  0.22580  1.0000
  H   H136      1.0  0.92574  0.63875  0.39923  1.0000
  H   H137      1.0  0.92479  0.66716  0.34752  1.0000
  H   H138      1.0  0.89853  0.69070  0.39457  1.0000
  B   B24       1.0  0.35564  0.21877  0.75209  1.0000
  O   O47       1.0  0.31860  0.24552  0.74962  1.0000
  O   O48       1.0  0.35942  0.18543  0.78355  1.0000
  C   C47       1.0  0.24398  0.32306  0.73192  1.0000
  C   C48       1.0  0.40931  0.16200  0.87746  1.0000
  H   H139      1.0  0.22313  0.34422  0.71063  1.0000
  H   H140      1.0  0.23970  0.33403  0.76647  1.0000
  H   H141      1.0  0.27858  0.32905  0.72284  1.0000
  H   H142      1.0  0.43019  0.14134  0.89921  1.0000
  H   H143      1.0  0.42860  0.17028  0.84781  1.0000
  H   H144      1.0  0.40242  0.19307  0.89529  1.0000
  B   B25       1.0  0.89620  0.00195  0.53129  1.0000
  O   O49       1.0  0.93330  0.99983  0.50465  1.0000
  O   O50       1.0  0.89259  0.03334  0.56476  1.0000
  C   C49       1.0  0.00995  0.98218  0.42991  1.0000
  C   C50       1.0  0.84355  0.12820  0.58423  1.0000
  H   H145      1.0  0.03035  0.96038  0.40908  1.0000
  H   H146      1.0  0.01634  0.01666  0.41979  1.0000
  H   H147      1.0  0.97512  0.97452  0.42252  1.0000
  H   H148      1.0  0.82201  0.15041  0.60339  1.0000
  H   H149      1.0  0.82413  0.09856  0.57514  1.0000
  H   H150      1.0  0.85252  0.14546  0.55344  1.0000
  B   B26       1.0  0.39755  0.50258  0.03031  1.0000
  O   O51       1.0  0.43376  0.50013  0.00245  1.0000
  O   O52       1.0  0.39509  0.53349  0.06437  1.0000
  C   C51       1.0  0.50946  0.48438  0.92486  1.0000
  C   C52       1.0  0.34466  0.62477  0.09006  1.0000
  H   H151      1.0  0.52965  0.46304  0.90337  1.0000
  H   H152      1.0  0.51555  0.51906  0.91523  1.0000
  H   H153      1.0  0.47457  0.47666  0.91783  1.0000
  H   H154      1.0  0.32440  0.64669  0.11089  1.0000
  H   H155      1.0  0.32563  0.59421  0.08366  1.0000
  H   H156      1.0  0.34974  0.64156  0.05810  1.0000
  B   B27       1.0  0.60180  0.99516  0.03213  1.0000
  O   O53       1.0  0.56447  0.99765  0.00513  1.0000
  O   O54       1.0  0.60508  0.96485  0.06656  1.0000
  C   C53       1.0  0.48783  0.00822  0.92598  1.0000
  C   C54       1.0  0.65550  0.87399  0.09489  1.0000
  H   H157      1.0  0.46721  0.02842  0.90354  1.0000
  H   H158      1.0  0.48177  0.97310  0.91779  1.0000
  H   H159      1.0  0.52257  0.01580  0.91874  1.0000
  H   H160      1.0  0.67644  0.85354  0.11679  1.0000
  H   H161      1.0  0.67440  0.90394  0.08619  1.0000
  H   H162      1.0  0.64931  0.85504  0.06420  1.0000
  B   B28       1.0  0.10418  0.50056  0.53413  1.0000
  O   O55       1.0  0.06646  0.50477  0.50827  1.0000
  O   O56       1.0  0.10743  0.46878  0.56716  1.0000
  C   C55       1.0  0.99291  0.52130  0.42854  1.0000
  C   C56       1.0  0.15588  0.37499  0.58966  1.0000
  H   H163      1.0  0.97262  0.54249  0.40675  1.0000
  H   H164      1.0  0.98821  0.48669  0.41773  1.0000
  H   H165      1.0  0.02771  0.53028  0.42331  1.0000
  H   H166      1.0  0.17630  0.35224  0.60968  1.0000
  H   H167      1.0  0.17569  0.40490  0.58305  1.0000
  H   H168      1.0  0.14883  0.35861  0.55769  1.0000
  B   B29       1.0  0.40045  0.50264  0.46233  1.0000
  O   O57       1.0  0.43790  0.50656  0.48884  1.0000
  O   O58       1.0  0.39712  0.47100  0.42888  1.0000
  C   C57       1.0  0.51115  0.51696  0.56909  1.0000
  C   C58       1.0  0.33892  0.38434  0.40289  1.0000
  H   H169      1.0  0.53274  0.53683  0.59120  1.0000
  H   H170      1.0  0.51264  0.48227  0.58030  1.0000
  H   H171      1.0  0.47714  0.52865  0.57346  1.0000
  H   H172      1.0  0.31691  0.36372  0.38193  1.0000
  H   H173      1.0  0.32294  0.41668  0.40763  1.0000
  H   H174      1.0  0.34167  0.36822  0.43552  1.0000
  B   B30       1.0  0.89851  0.99730  0.96788  1.0000
  O   O59       1.0  0.93553  0.00007  0.99523  1.0000
  O   O60       1.0  0.89526  0.96636  0.93378  1.0000
  C   C59       1.0  0.01085  0.01577  0.07398  1.0000
  C   C60       1.0  0.84330  0.87491  0.90992  1.0000
  H   H175      1.0  0.03159  0.03698  0.09564  1.0000
  H   H176      1.0  0.01572  0.98112  0.08426  1.0000
  H   H177      1.0  0.97616  0.02436  0.07998  1.0000
  H   H178      1.0  0.82144  0.85422  0.88888  1.0000
  H   H179      1.0  0.82546  0.90554  0.91797  1.0000
  H   H180      1.0  0.84929  0.85683  0.94106  1.0000
  B   B31       1.0  0.10576  0.50449  0.96638  1.0000
  O   O61       1.0  0.06891  0.50208  0.99325  1.0000
  O   O62       1.0  0.10938  0.53595  0.93307  1.0000
  C   C61       1.0  0.99501  0.48784  0.07162  1.0000
  C   C62       1.0  0.15876  0.62918  0.90738  1.0000
  H   H181      1.0  0.97512  0.46684  0.09382  1.0000
  H   H182      1.0  0.98925  0.52266  0.08084  1.0000
  H   H183      1.0  0.02999  0.48046  0.07813  1.0000
  H   H184      1.0  0.17919  0.65045  0.88595  1.0000
  H   H185      1.0  0.17798  0.59933  0.91537  1.0000
  H   H186      1.0  0.15297  0.64733  0.93849  1.0000
  B   B32       1.0  0.60369  0.00207  0.46659  1.0000
  O   O63       1.0  0.56678  0.99974  0.49341  1.0000
  O   O64       1.0  0.60725  0.03360  0.43331  1.0000
  C   C63       1.0  0.49073  0.97751  0.56822  1.0000
  C   C64       1.0  0.65718  0.12935  0.41771  1.0000
  H   H187      1.0  0.47031  0.95462  0.58796  1.0000
  H   H188      1.0  0.48460  0.01141  0.58022  1.0000
  H   H189      1.0  0.52555  0.96966  0.57497  1.0000
  H   H190      1.0  0.67893  0.15199  0.39915  1.0000
  H   H191      1.0  0.67630  0.09951  0.42596  1.0000
  H   H192      1.0  0.64844  0.14591  0.44898  1.0000
  B   B33       1.0  0.00417  0.53343  0.89619  1.0000
  O   O65       1.0  0.00211  0.50648  0.93341  1.0000
  O   O66       1.0  0.03541  0.56701  0.89280  1.0000
  C   C65       1.0  0.99063  0.42931  0.01137  1.0000
  C   C66       1.0  0.12501  0.59186  0.83985  1.0000
  H   H193      1.0  0.97055  0.40772  0.03283  1.0000
  H   H194      1.0  0.02546  0.42047  0.01658  1.0000
  H   H195      1.0  0.98186  0.42157  0.97669  1.0000
  H   H196      1.0  0.14496  0.61292  0.81777  1.0000
  H   H197      1.0  0.09458  0.58273  0.82182  1.0000
  H   H198      1.0  0.14367  0.56129  0.84624  1.0000
  B   B34       1.0  0.50404  0.03336  0.39500  1.0000
  O   O67       1.0  0.50191  0.00675  0.43248  1.0000
  O   O68       1.0  0.53549  0.06675  0.39096  1.0000
  C   C67       1.0  0.48814  0.92453  0.50286  1.0000
  C   C68       1.0  0.62967  0.09493  0.34588  1.0000
  H   H199      1.0  0.46785  0.90101  0.52200  1.0000
  H   H200      1.0  0.52295  0.91542  0.50776  1.0000
  H   H201      1.0  0.47989  0.91991  0.46751  1.0000
  H   H202      1.0  0.65139  0.11715  0.32678  1.0000
  H   H203      1.0  0.60095  0.08670  0.32480  1.0000
  H   H204      1.0  0.64788  0.06410  0.35234  1.0000
  B   B35       1.0  0.99574  0.03149  0.60462  1.0000
  O   O69       1.0  0.99780  0.00482  0.56701  1.0000
  O   O70       1.0  0.96441  0.06464  0.60893  1.0000
  C   C69       1.0  0.01198  0.92593  0.49212  1.0000
  C   C70       1.0  0.87059  0.09204  0.65507  1.0000
  H   H205      1.0  0.03251  0.90367  0.47192  1.0000
  H   H206      1.0  0.97723  0.91675  0.48620  1.0000
  H   H207      1.0  0.01974  0.91950  0.52725  1.0000
  H   H208      1.0  0.84893  0.11373  0.67470  1.0000
  H   H209      1.0  0.89919  0.08344  0.67601  1.0000
  H   H210      1.0  0.85220  0.06130  0.64768  1.0000
  B   B36       1.0  0.49879  0.53067  0.10031  1.0000
  O   O71       1.0  0.50008  0.50435  0.06255  1.0000
  O   O72       1.0  0.46876  0.56493  0.10473  1.0000
  C   C71       1.0  0.51248  0.42712  0.98612  1.0000
  C   C72       1.0  0.38025  0.59033  0.15797  1.0000
  H   H211      1.0  0.53318  0.40519  0.96573  1.0000
  H   H212      1.0  0.47781  0.41785  0.97997  1.0000
  H   H213      1.0  0.52014  0.42029  0.02120  1.0000
  H   H214      1.0  0.35936  0.61083  0.17959  1.0000
  H   H215      1.0  0.41114  0.58352  0.17608  1.0000
  H   H216      1.0  0.36309  0.55852  0.15244  1.0000
  B   B37       1.0  0.50063  0.46598  0.39445  1.0000
  O   O73       1.0  0.50443  0.49321  0.43148  1.0000
  O   O74       1.0  0.46849  0.43313  0.39100  1.0000
  C   C73       1.0  0.52419  0.57109  0.50643  1.0000
  C   C74       1.0  0.37894  0.41313  0.33536  1.0000
  H   H217      1.0  0.54625  0.59123  0.52780  1.0000
  H   H218      1.0  0.49062  0.58440  0.50955  1.0000
  H   H219      1.0  0.53465  0.57574  0.47187  1.0000
  H   H220      1.0  0.35676  0.39370  0.31346  1.0000
  H   H221      1.0  0.41071  0.41689  0.31837  1.0000
  H   H222      1.0  0.36455  0.44634  0.33926  1.0000
  B   B38       1.0  0.99966  0.96716  0.89894  1.0000
  O   O75       1.0  0.00230  0.99352  0.93665  1.0000
  O   O76       1.0  0.96864  0.93333  0.89482  1.0000
  C   C75       1.0  0.01615  0.07189  0.01177  1.0000
  C   C76       1.0  0.87659  0.90946  0.84144  1.0000
  H   H223      1.0  0.03711  0.09372  0.03259  1.0000
  H   H224      1.0  0.98165  0.08199  0.01637  1.0000
  H   H225      1.0  0.02479  0.07794  0.97690  1.0000
  H   H226      1.0  0.85510  0.88871  0.82007  1.0000
  H   H227      1.0  0.90681  0.91685  0.82284  1.0000
  H   H228      1.0  0.85941  0.94094  0.84743  1.0000
  B   B39       1.0  0.50036  0.96767  0.10242  1.0000
  O   O77       1.0  0.49793  0.99366  0.06455  1.0000
  O   O78       1.0  0.53158  0.93455  0.10723  1.0000
  C   C77       1.0  0.48489  0.06830  0.98472  1.0000
  C   C78       1.0  0.62269  0.91290  0.16122  1.0000
  H   H229      1.0  0.46370  0.08894  0.96323  1.0000
  H   H230      1.0  0.51939  0.07774  0.97846  1.0000
  H   H231      1.0  0.47739  0.07671  0.01939  1.0000
  H   H232      1.0  0.64367  0.89326  0.18381  1.0000
  H   H233      1.0  0.59258  0.92181  0.17923  1.0000
  H   H234      1.0  0.64056  0.94376  0.15350  1.0000
  B   B40       1.0  0.00200  0.47055  0.60328  1.0000
  O   O79       1.0  0.99958  0.49752  0.56604  1.0000
  O   O80       1.0  0.03353  0.43756  0.60723  1.0000
  C   C79       1.0  0.98672  0.57698  0.49107  1.0000
  C   C80       1.0  0.12465  0.40954  0.65917  1.0000
  H   H235      1.0  0.96635  0.59880  0.46999  1.0000
  H   H236      1.0  0.02140  0.58710  0.48710  1.0000
  H   H237      1.0  0.97756  0.58297  0.52582  1.0000
  H   H238      1.0  0.14507  0.38750  0.67999  1.0000
  H   H239      1.0  0.09488  0.41783  0.67803  1.0000
  H   H240      1.0  0.14344  0.44038  0.65390  1.0000
  B   B41       1.0  0.53152  0.89417  0.00392  1.0000
  O   O81       1.0  0.50446  0.93112  0.00172  1.0000
  O   O82       1.0  0.56458  0.89058  0.03580  1.0000
  C   C81       1.0  0.42752  0.00697  0.98359  1.0000
  C   C82       1.0  0.58705  0.84274  0.13111  1.0000
  H   H241      1.0  0.40592  0.02650  0.96149  1.0000
  H   H242      1.0  0.41831  0.01445  0.01803  1.0000
  H   H243      1.0  0.42051  0.97164  0.97734  1.0000
  H   H244      1.0  0.60742  0.82250  0.15374  1.0000
  H   H245      1.0  0.57937  0.82248  0.10160  1.0000
  H   H246      1.0  0.55586  0.84995  0.14803  1.0000
  B   B42       1.0  0.03214  0.40133  0.50117  1.0000
  O   O83       1.0  0.00660  0.43929  0.49770  1.0000
  O   O84       1.0  0.06468  0.39720  0.53347  1.0000
  C   C83       1.0  0.93028  0.51513  0.48323  1.0000
  C   C84       1.0  0.08670  0.34315  0.62382  1.0000
  H   H247      1.0  0.90932  0.53606  0.46181  1.0000
  H   H248      1.0  0.91948  0.51976  0.51769  1.0000
  H   H249      1.0  0.92408  0.48030  0.47397  1.0000
  H   H250      1.0  0.10649  0.32056  0.64464  1.0000
  H   H251      1.0  0.07832  0.32553  0.59284  1.0000
  H   H252      1.0  0.05580  0.34994  0.64142  1.0000
  B   B43       1.0  0.03543  0.60478  0.99702  1.0000
  O   O85       1.0  0.00883  0.56720  0.99842  1.0000
  O   O86       1.0  0.06889  0.60914  0.96609  1.0000
  C   C85       1.0  0.93271  0.48937  0.01523  1.0000
  C   C86       1.0  0.08889  0.65988  0.87253  1.0000
  H   H253      1.0  0.91220  0.46864  0.03712  1.0000
  H   H254      1.0  0.92227  0.48280  0.98077  1.0000
  H   H255      1.0  0.92552  0.52432  0.02278  1.0000
  H   H256      1.0  0.10921  0.68248  0.85236  1.0000
  H   H257      1.0  0.07945  0.67782  0.90281  1.0000
  H   H258      1.0  0.05860  0.65234  0.85353  1.0000
  B   B44       1.0  0.53113  0.10102  0.49901  1.0000
  O   O87       1.0  0.50502  0.06315  0.50223  1.0000
  O   O88       1.0  0.56455  0.10469  0.46801  1.0000
  C   C87       1.0  0.42991  0.98385  0.51055  1.0000
  C   C88       1.0  0.58995  0.16079  0.37884  1.0000
  H   H259      1.0  0.40891  0.96102  0.52976  1.0000
  H   H260      1.0  0.42046  0.98051  0.47535  1.0000
  H   H261      1.0  0.42232  0.01790  0.52115  1.0000
  H   H262      1.0  0.61082  0.18376  0.35968  1.0000
  H   H263      1.0  0.57984  0.17812  0.40925  1.0000
  H   H264      1.0  0.56010  0.15378  0.35897  1.0000
  B   B45       1.0  0.46441  0.39840  0.49547  1.0000
  O   O89       1.0  0.49133  0.43561  0.49821  1.0000
  O   O90       1.0  0.43102  0.39516  0.46378  1.0000
  C   C89       1.0  0.57408  0.50460  0.51588  1.0000
  C   C90       1.0  0.40511  0.34314  0.37344  1.0000
  H   H265      1.0  0.59652  0.52398  0.53755  1.0000
  H   H266      1.0  0.58599  0.50767  0.48162  1.0000
  H   H267      1.0  0.57671  0.46954  0.52562  1.0000
  H   H268      1.0  0.38373  0.32292  0.35144  1.0000
  H   H269      1.0  0.40898  0.32517  0.40495  1.0000
  H   H270      1.0  0.43774  0.34552  0.35787  1.0000
  B   B46       1.0  0.96831  0.89661  0.99925  1.0000
  O   O91       1.0  0.99515  0.93397  0.00253  1.0000
  O   O92       1.0  0.93530  0.89294  0.96721  1.0000
  C   C91       1.0  0.07234  0.01039  0.01782  1.0000
  C   C92       1.0  0.91083  0.84081  0.87518  1.0000
  H   H271      1.0  0.09379  0.03157  0.03880  1.0000
  H   H272      1.0  0.08225  0.01513  0.98310  1.0000
  H   H273      1.0  0.07876  0.97563  0.02673  1.0000
  H   H274      1.0  0.88988  0.81957  0.85376  1.0000
  H   H275      1.0  0.91815  0.82219  0.90571  1.0000
  H   H276      1.0  0.94210  0.84654  0.85779  1.0000
  B   B47       1.0  0.96935  0.10187  0.50260  1.0000
  O   O93       1.0  0.99542  0.06423  0.49996  1.0000
  O   O94       1.0  0.93574  0.10527  0.53336  1.0000
  C   C93       1.0  0.07025  0.98627  0.48852  1.0000
  C   C94       1.0  0.91106  0.15866  0.62413  1.0000
  H   H277      1.0  0.09157  0.96491  0.46820  1.0000
  H   H278      1.0  0.07931  0.98107  0.52356  1.0000
  H   H279      1.0  0.07780  0.02098  0.48016  1.0000
  H   H280      1.0  0.89041  0.18117  0.64390  1.0000
  H   H281      1.0  0.92144  0.17670  0.59425  1.0000
  H   H282      1.0  0.94079  0.15114  0.64387  1.0000
  B   B48       1.0  0.46883  0.60256  0.00018  1.0000
  O   O95       1.0  0.49519  0.56507  0.99759  1.0000
  O   O96       1.0  0.43578  0.60670  0.03154  1.0000
  C   C95       1.0  0.57054  0.48774  0.98272  1.0000
  C   C96       1.0  0.41387  0.65887  0.12329  1.0000
  H   H283      1.0  0.57789  0.52258  0.97469  1.0000
  H   H284      1.0  0.59176  0.46674  0.96190  1.0000
  H   H285      1.0  0.58003  0.48217  0.01759  1.0000
  H   H286      1.0  0.39402  0.68016  0.14514  1.0000
  H   H287      1.0  0.42021  0.67741  0.09257  1.0000
  H   H288      1.0  0.44575  0.65311  0.13997  1.0000
  Si  Si1       1.0  0.76228  0.73590  0.26113  1.0000
  C   C97       1.0  0.72700  0.77118  0.22466  1.0000
  C   C98       1.0  0.86220  0.63430  0.36490  1.0000
  Si  Si2       1.0  0.82736  0.67015  0.32854  1.0000
  Si  Si3       1.0  0.26599  0.23845  0.76195  1.0000
  C   C99       1.0  0.23067  0.27388  0.72560  1.0000
  C   C100      1.0  0.36645  0.13662  0.86526  1.0000
  Si  Si4       1.0  0.33151  0.17247  0.82896  1.0000
  Si  Si5       1.0  0.73609  0.26073  0.76376  1.0000
  C   C101      1.0  0.76959  0.22294  0.72850  1.0000
  C   C102      1.0  0.63843  0.36464  0.86616  1.0000
  Si  Si6       1.0  0.67184  0.32778  0.82982  1.0000
  Si  Si7       1.0  0.23416  0.76477  0.26588  1.0000
  C   C103      1.0  0.26770  0.72761  0.23007  1.0000
  C   C104      1.0  0.13774  0.86991  0.36860  1.0000
  Si  Si8       1.0  0.17093  0.83247  0.33262  1.0000
  Si  Si9       1.0  0.23735  0.23976  0.23828  1.0000
  C   C105      1.0  0.27251  0.27569  0.27478  1.0000
  C   C106      1.0  0.13561  0.13707  0.13492  1.0000
  Si  Si10      1.0  0.17060  0.17266  0.17201  1.0000
  Si  Si11      1.0  0.73720  0.73545  0.73615  1.0000
  C   C107      1.0  0.77370  0.77073  0.77190  1.0000
  C   C108      1.0  0.63186  0.63401  0.63545  1.0000
  Si  Si12      1.0  0.66939  0.66904  0.67049  1.0000
  Si  Si13      1.0  0.26159  0.76569  0.73806  1.0000
  C   C109      1.0  0.22633  0.73127  0.77514  1.0000
  C   C110      1.0  0.36367  0.86580  0.63527  1.0000
  Si  Si14      1.0  0.32748  0.83152  0.67158  1.0000
  Si  Si15      1.0  0.76243  0.25924  0.23942  1.0000
  C   C111      1.0  0.72745  0.22426  0.27624  1.0000
  C   C112      1.0  0.86335  0.36019  0.13679  1.0000
  Si  Si16      1.0  0.82812  0.32410  0.17233  1.0000
  Si  Si17      1.0  0.98602  0.01181  0.51371  1.0000
  C   C113      1.0  0.02126  0.97473  0.47945  1.0000
  C   C114      1.0  0.88471  0.11615  0.61224  1.0000
  Si  Si18      1.0  0.92047  0.07876  0.57889  1.0000
  Si  Si19      1.0  0.48665  0.51229  0.00987  1.0000
  C   C115      1.0  0.52145  0.47616  0.97410  1.0000
  C   C116      1.0  0.38887  0.61498  0.11392  1.0000
  Si  Si20      1.0  0.42319  0.57913  0.07748  1.0000
  Si  Si21      1.0  0.51187  0.98449  0.01233  1.0000
  C   C117      1.0  0.47640  0.01863  0.97478  1.0000
  C   C118      1.0  0.61218  0.88567  0.11886  1.0000
  Si  Si22      1.0  0.57715  0.91979  0.08105  1.0000
  Si  Si23      1.0  0.01381  0.49152  0.51345  1.0000
  C   C119      1.0  0.97929  0.52805  0.47741  1.0000
  C   C120      1.0  0.11312  0.38616  0.61485  1.0000
  Si  Si24      1.0  0.07866  0.42367  0.57979  1.0000
  Si  Si25      1.0  0.48907  0.48842  0.48382  1.0000
  C   C121      1.0  0.52642  0.52186  0.52052  1.0000
  C   C122      1.0  0.38434  0.38934  0.38045  1.0000
  Si  Si26      1.0  0.42140  0.42319  0.41716  1.0000
  Si  Si27      1.0  0.98808  0.98668  0.98904  1.0000
  C   C123      1.0  0.02351  0.02292  0.02494  1.0000
  C   C124      1.0  0.88672  0.88471  0.88519  1.0000
  Si  Si28      1.0  0.92256  0.92042  0.92125  1.0000
  Si  Si29      1.0  0.01624  0.51436  0.98602  1.0000
  C   C125      1.0  0.98198  0.47852  0.02275  1.0000
  C   C126      1.0  0.11511  0.61729  0.88322  1.0000
  Si  Si30      1.0  0.08117  0.58129  0.92005  1.0000
  Si  Si31      1.0  0.51402  0.01148  0.48582  1.0000
  C   C127      1.0  0.47902  0.97250  0.51843  1.0000
  C   C128      1.0  0.61585  0.11799  0.38943  1.0000
  Si  Si32      1.0  0.57969  0.07965  0.42151  1.0000
  C   C129      1.0  0.37433  0.00147  0.24869  1.0000
  C   C130      1.0  0.12478  0.00201  0.75169  1.0000
  C   C131      1.0  0.62628  0.49655  0.24704  1.0000
  C   C132      1.0  0.87462  0.49927  0.75000  1.0000
  C   C133      1.0  0.24992  0.37544  0.99976  1.0000
  C   C134      1.0  0.74978  0.12133  0.99991  1.0000
  C   C135      1.0  0.25242  0.62562  0.50049  1.0000
  C   C136      1.0  0.74904  0.87380  0.49938  1.0000
  C   C137      1.0  0.00135  0.25037  0.37643  1.0000
  C   C138      1.0  0.99925  0.74918  0.12670  1.0000
  C   C139      1.0  0.49962  0.25153  0.62296  1.0000
  C   C140      1.0  0.50063  0.74945  0.87286  1.0000
  C  Sn1       1.0  0.67090  0.57804  0.21925  1.0000
  C   C141      1.0  0.66633  0.53819  0.24257  1.0000
  C  Sn2       1.0  0.68625  0.53304  0.28429  1.0000
  C  Sn3       1.0  0.71125  0.56847  0.30311  1.0000
  C   C142      1.0  0.71581  0.60830  0.27981  1.0000
  C  Sn4       1.0  0.69590  0.61347  0.23808  1.0000
  O  Te1       1.0  0.65070  0.58245  0.17760  1.0000
  O  Te2       1.0  0.68122  0.49288  0.30695  1.0000
  O  Te3       1.0  0.73146  0.56402  0.34481  1.0000
  O  Te4       1.0  0.70091  0.65361  0.21543  1.0000
  Mg  Mg1       1.0  0.71502  0.50293  0.36274  1.0000
  Mg  Mg2       1.0  0.66711  0.64360  0.15965  1.0000
  C  Sn5       1.0  0.49036  0.15779  0.59748  1.0000
  C   C143      1.0  0.51118  0.19932  0.59943  1.0000
  C  Sn6       1.0  0.53648  0.21437  0.56382  1.0000
  C  Sn7       1.0  0.54105  0.18735  0.52546  1.0000
  C   C144      1.0  0.52023  0.14585  0.52352  1.0000
  C  Sn8       1.0  0.49493  0.13078  0.55911  1.0000
  O  Te5       1.0  0.46523  0.14342  0.63347  1.0000
  O  Te6       1.0  0.55698  0.25600  0.56655  1.0000
  O  Te7       1.0  0.56621  0.20176  0.48946  1.0000
  O  Te8       1.0  0.47443  0.08917  0.55640  1.0000
  Mg  Mg3       1.0  0.58773  0.26096  0.50893  1.0000
  Mg  Mg4       1.0  0.44366  0.08419  0.61399  1.0000
  C  Sn9       1.0  0.18779  0.04988  0.80625  1.0000
  C   C145      1.0  0.15495  0.04736  0.77338  1.0000
  C  Sn10      1.0  0.15591  0.07598  0.73690  1.0000
  C  Sn11      1.0  0.19044  0.10777  0.73318  1.0000
  C   C146      1.0  0.22325  0.11028  0.76603  1.0000
  C  Sn12      1.0  0.22231  0.08167  0.80253  1.0000
  O  Te9       1.0  0.18617  0.02094  0.84243  1.0000
  O  Te10      1.0  0.12271  0.07284  0.70447  1.0000
  O  Te11      1.0  0.19203  0.13672  0.69696  1.0000
  O  Te12      1.0  0.25549  0.08480  0.83494  1.0000
  Mg  Mg5       1.0  0.13930  0.11956  0.66140  1.0000
  Mg  Mg6       1.0  0.23895  0.03808  0.87801  1.0000
  C  Sn13      1.0  0.06085  0.68494  0.04704  1.0000
  C   C147      1.0  0.03857  0.64462  0.04056  1.0000
  C  Sn14      1.0  0.99689  0.63775  0.05900  1.0000
  C  Sn15      1.0  0.97705  0.67189  0.08442  1.0000
  C   C148      1.0  0.99933  0.71219  0.09088  1.0000
  C  Sn16      1.0  0.04101  0.71909  0.07246  1.0000
  O  Te13      1.0  0.10249  0.69108  0.02830  1.0000
  O  Te14      1.0  0.97527  0.59715  0.05208  1.0000
  O  Te15      1.0  0.93538  0.66572  0.10316  1.0000
  O  Te16      1.0  0.06263  0.75965  0.07936  1.0000
  Mg  Mg7       1.0  0.91907  0.60468  0.08439  1.0000
  Mg  Mg8       1.0  0.11881  0.75217  0.04705  1.0000
  C  Sn17      1.0  0.81365  0.45140  0.80539  1.0000
  C   C149      1.0  0.84547  0.45405  0.77210  1.0000
  C  Sn18      1.0  0.84416  0.42468  0.73608  1.0000
  C  Sn19      1.0  0.81032  0.39199  0.73326  1.0000
  C   C150      1.0  0.77852  0.38935  0.76654  1.0000
  C  Sn20      1.0  0.77982  0.41871  0.80257  1.0000
  O  Te17      1.0  0.81561  0.48111  0.84110  1.0000
  O  Te18      1.0  0.87635  0.42797  0.70321  1.0000
  O  Te19      1.0  0.80839  0.36227  0.69752  1.0000
  O  Te20      1.0  0.74765  0.41543  0.83542  1.0000
  Mg  Mg9       1.0  0.85967  0.37998  0.66107  1.0000
  Mg  Mg10      1.0  0.76429  0.46341  0.87756  1.0000
  C  Sn21      1.0  0.94100  0.81553  0.04561  1.0000
  C   C151      1.0  0.96377  0.85579  0.04134  1.0000
  C  Sn22      1.0  0.00491  0.86185  0.06194  1.0000
  C  Sn23      1.0  0.02370  0.82694  0.08731  1.0000
  C   C152      1.0  0.00094  0.78670  0.09155  1.0000
  C  Sn24      1.0  0.95979  0.78061  0.07097  1.0000
  O  Te21      1.0  0.89991  0.81020  0.02473  1.0000
  O  Te22      1.0  0.02704  0.90241  0.05721  1.0000
  O  Te23      1.0  0.06482  0.83230  0.10819  1.0000
  O  Te24      1.0  0.93767  0.74008  0.07568  1.0000
  Mg  Mg11      1.0  0.08216  0.89362  0.09195  1.0000
  Mg  Mg12      1.0  0.88256  0.74883  0.04094  1.0000
  C  Sn25      1.0  0.27715  0.94694  0.29140  1.0000
  C   C153      1.0  0.27303  0.90577  0.27015  1.0000
  C  Sn26      1.0  0.30687  0.88999  0.24316  1.0000
  C  Sn27      1.0  0.34565  0.91589  0.23730  1.0000
  C   C154      1.0  0.34977  0.95704  0.25854  1.0000
  C  Sn28      1.0  0.31594  0.97285  0.28554  1.0000
  O  Te25      1.0  0.24291  0.96206  0.31823  1.0000
  O  Te26      1.0  0.30198  0.84872  0.22225  1.0000
  O  Te27      1.0  0.37991  0.90073  0.21044  1.0000
  O  Te28      1.0  0.31579  0.01408  0.30645  1.0000
  Mg  Mg13      1.0  0.35778  0.84243  0.18900  1.0000
  Mg  Mg14      1.0  0.26002  0.02040  0.33971  1.0000
  C  Sn29      1.0  0.46155  0.28640  0.54235  1.0000
  C   C155      1.0  0.49298  0.28584  0.57666  1.0000
  C  Sn30      1.0  0.51308  0.32528  0.59103  1.0000
  C  Sn31      1.0  0.50151  0.36614  0.57071  1.0000
  C   C156      1.0  0.47009  0.36668  0.53644  1.0000
  C  Sn32      1.0  0.44998  0.32726  0.52204  1.0000
  O  Te29      1.0  0.44187  0.24657  0.52852  1.0000
  O  Te30      1.0  0.54442  0.32389  0.62537  1.0000
  O  Te31      1.0  0.52122  0.40598  0.58458  1.0000
  O  Te32      1.0  0.41865  0.32864  0.48772  1.0000
  Mg  Mg15      1.0  0.56203  0.38697  0.63258  1.0000
  Mg  Mg16      1.0  0.40101  0.26559  0.48051  1.0000
  C  Sn33      1.0  0.33102  0.11459  0.25375  1.0000
  C   C157      1.0  0.29636  0.11597  0.22279  1.0000
  C  Sn34      1.0  0.28159  0.07707  0.20191  1.0000
  C  Sn35      1.0  0.30187  0.03592  0.21221  1.0000
  C   C158      1.0  0.33649  0.03455  0.24316  1.0000
  C  Sn36      1.0  0.35129  0.07344  0.26405  1.0000
  O  Te33      1.0  0.34525  0.15389  0.27423  1.0000
  O  Te34      1.0  0.24690  0.07928  0.17106  1.0000
  O  Te35      1.0  0.29264  0.99660  0.19170  1.0000
  O  Te36      1.0  0.38596  0.07124  0.29489  1.0000
  Mg  Mg17      1.0  0.23923  0.01668  0.15199  1.0000
  Mg  Mg18      1.0  0.39364  0.13381  0.31399  1.0000
  C  Sn37      1.0  0.51038  0.65653  0.90066  1.0000
  C   C159      1.0  0.48895  0.69740  0.89695  1.0000
  C  Sn38      1.0  0.46273  0.71308  0.93155  1.0000
  C  Sn39      1.0  0.45785  0.68739  0.97069  1.0000
  C   C160      1.0  0.47928  0.64655  0.97439  1.0000
  C  Sn40      1.0  0.50550  0.63083  0.93980  1.0000
  O  Te37      1.0  0.53643  0.64150  0.86566  1.0000
  O  Te38      1.0  0.44162  0.75403  0.92707  1.0000
  O  Te39      1.0  0.42316  0.70014  0.00570  1.0000
  O  Te40      1.0  0.52661  0.58991  0.94427  1.0000
  Mg  Mg19      1.0  0.40970  0.76030  0.98389  1.0000
  Mg  Mg20      1.0  0.55855  0.58362  0.88748  1.0000
  C  Sn41      1.0  0.82773  0.61079  0.75508  1.0000
  C   C161      1.0  0.79357  0.61141  0.72353  1.0000
  C  Sn42      1.0  0.78004  0.57221  0.70238  1.0000
  C  Sn43      1.0  0.80107  0.53153  0.71299  1.0000
  C   C162      1.0  0.83520  0.53092  0.74453  1.0000
  C  Sn44      1.0  0.84876  0.57011  0.76570  1.0000
  O  Te41      1.0  0.84071  0.65037  0.77582  1.0000
  O  Te42      1.0  0.74582  0.57367  0.67094  1.0000
  O  Te43      1.0  0.78805  0.49193  0.69222  1.0000
  O  Te44      1.0  0.88294  0.56866  0.79713  1.0000
  Mg  Mg21      1.0  0.73989  0.51094  0.65171  1.0000
  Mg  Mg22      1.0  0.88889  0.63136  0.81639  1.0000
  C  Sn45      1.0  0.94424  0.18436  0.45794  1.0000
  C   C163      1.0  0.96585  0.14356  0.46136  1.0000
  C  Sn46      1.0  0.00629  0.13699  0.44036  1.0000
  C  Sn47      1.0  0.02555  0.17193  0.41545  1.0000
  C   C164      1.0  0.00395  0.21270  0.41205  1.0000
  C  Sn48      1.0  0.96350  0.21930  0.43303  1.0000
  O  Te45      1.0  0.90384  0.19020  0.47921  1.0000
  O  Te46      1.0  0.02726  0.09590  0.44424  1.0000
  O  Te47      1.0  0.06598  0.16606  0.39417  1.0000
  O  Te48      1.0  0.94254  0.26036  0.42917  1.0000
  Mg  Mg23      1.0  0.08180  0.10412  0.40925  1.0000
  Mg  Mg24      1.0  0.88802  0.25219  0.46416  1.0000
  C  Sn49      1.0  0.17109  0.89007  0.75640  1.0000
  C   C165      1.0  0.20507  0.88947  0.72523  1.0000
  C  Sn50      1.0  0.21845  0.92868  0.70442  1.0000
  C  Sn51      1.0  0.19746  0.96935  0.71499  1.0000
  C   C166      1.0  0.16352  0.96994  0.74614  1.0000
  C  Sn52      1.0  0.15011  0.93074  0.76697  1.0000
  O  Te49      1.0  0.15825  0.85048  0.77680  1.0000
  O  Te50      1.0  0.25248  0.92725  0.67336  1.0000
  O  Te51      1.0  0.20531  0.00896  0.69455  1.0000
  O  Te52      1.0  0.11610  0.93216  0.79801  1.0000
  Mg  Mg25      1.0  0.25826  0.98999  0.65449  1.0000
  Mg  Mg26      1.0  0.11031  0.86946  0.81691  1.0000
  C  Sn53      1.0  0.05896  0.31934  0.45663  1.0000
  C   C167      1.0  0.03648  0.35969  0.45958  1.0000
  C  Sn54      1.0  0.99561  0.36504  0.43839  1.0000
  C  Sn55      1.0  0.97679  0.32932  0.41376  1.0000
  C   C168      1.0  0.99926  0.28901  0.41083  1.0000
  C  Sn56      1.0  0.04014  0.28362  0.43200  1.0000
  O  Te53      1.0  0.09978  0.31473  0.47809  1.0000
  O  Te54      1.0  0.97378  0.40569  0.44180  1.0000
  O  Te55      1.0  0.93594  0.33397  0.39229  1.0000
  O  Te56      1.0  0.06197  0.24300  0.42861  1.0000
  Mg  Mg27      1.0  0.91895  0.39574  0.40672  1.0000
  Mg  Mg28      1.0  0.11678  0.25291  0.46369  1.0000
  C  Sn57      1.0  0.67056  0.38410  0.25395  1.0000
  C   C169      1.0  0.70435  0.38217  0.22264  1.0000
  C  Sn58      1.0  0.71823  0.42062  0.20078  1.0000
  C  Sn59      1.0  0.69793  0.46187  0.21042  1.0000
  C   C170      1.0  0.66416  0.46379  0.24172  1.0000
  C  Sn60      1.0  0.65026  0.42535  0.26359  1.0000
  O  Te57      1.0  0.65721  0.34523  0.27540  1.0000
  O  Te58      1.0  0.75206  0.41786  0.16960  1.0000
  O  Te59      1.0  0.71130  0.50075  0.18893  1.0000
  O  Te60      1.0  0.61645  0.42810  0.29476  1.0000
  Mg  Mg29      1.0  0.75871  0.48000  0.14913  1.0000
  Mg  Mg30      1.0  0.60979  0.36598  0.31526  1.0000
  C  Sn61      1.0  0.53851  0.78426  0.95332  1.0000
  C   C171      1.0  0.50690  0.78315  0.91919  1.0000
  C  Sn62      1.0  0.48502  0.82191  0.90644  1.0000
  C  Sn63      1.0  0.49496  0.86264  0.92824  1.0000
  C   C172      1.0  0.52656  0.86373  0.96234  1.0000
  C  Sn64      1.0  0.54845  0.82498  0.97512  1.0000
  O  Te61      1.0  0.55998  0.74511  0.96551  1.0000
  O  Te62      1.0  0.45353  0.81997  0.87224  1.0000
  O  Te63      1.0  0.47346  0.90181  0.91602  1.0000
  O  Te64      1.0  0.57131  0.82460  0.00929  1.0000
  Mg  Mg31      1.0  0.43317  0.88223  0.86755  1.0000
  Mg  Mg32      1.0  0.59170  0.76238  0.01399  1.0000
  C  Sn65      1.0  0.30555  0.68900  0.54969  1.0000
  C   C173      1.0  0.27371  0.65532  0.54652  1.0000
  C  Sn66      1.0  0.23739  0.65508  0.57485  1.0000
  C  Sn67      1.0  0.23277  0.68925  0.60701  1.0000
  C   C174      1.0  0.26459  0.72291  0.61017  1.0000
  C  Sn68      1.0  0.30093  0.72317  0.58185  1.0000
  O  Te65      1.0  0.34160  0.68857  0.52102  1.0000
  O  Te66      1.0  0.20599  0.62105  0.57106  1.0000
  O  Te67      1.0  0.19668  0.68965  0.63569  1.0000
  O  Te68      1.0  0.33230  0.75718  0.58563  1.0000
  Mg  Mg33      1.0  0.16269  0.63612  0.61762  1.0000
  Mg  Mg34      1.0  0.37560  0.74215  0.53907  1.0000
  C  Sn69      1.0  0.59760  0.48697  0.15412  1.0000
  C   C175      1.0  0.60169  0.50829  0.19528  1.0000
  C  Sn70      1.0  0.56757  0.53492  0.21114  1.0000
  C  Sn71      1.0  0.52853  0.54033  0.18534  1.0000
  C   C176      1.0  0.52445  0.51901  0.14421  1.0000
  C  Sn72      1.0  0.55856  0.49238  0.12832  1.0000
  O  Te69      1.0  0.63213  0.46051  0.13892  1.0000
  O  Te70      1.0  0.57243  0.55591  0.25239  1.0000
  O  Te71      1.0  0.49399  0.56682  0.20058  1.0000
  O  Te72      1.0  0.55371  0.47139  0.08711  1.0000
  Mg  Mg35      1.0  0.51619  0.58854  0.25882  1.0000
  Mg  Mg36      1.0  0.60992  0.43874  0.08066  1.0000
  C  Sn73      1.0  0.72259  0.16460  0.08232  1.0000
  C   C177      1.0  0.74539  0.16062  0.04232  1.0000
  C  Sn74      1.0  0.78654  0.18111  0.03713  1.0000
  C  Sn75      1.0  0.80530  0.20607  0.07268  1.0000
  C   C178      1.0  0.78251  0.21003  0.11265  1.0000
  C  Sn76      1.0  0.74135  0.18956  0.11787  1.0000
  O  Te73      1.0  0.68149  0.14383  0.08677  1.0000
  O  Te74      1.0  0.81732  0.17898  0.99682  1.0000
  O  Te75      1.0  0.84643  0.22684  0.06820  1.0000
  O  Te76      1.0  0.71920  0.19398  0.15815  1.0000
  Mg  Mg37      1.0  0.86381  0.21110  0.00689  1.0000
  Mg  Mg38      1.0  0.66410  0.15954  0.14813  1.0000
  C  Sn77      1.0  0.04453  0.03821  0.71583  1.0000
  C   C179      1.0  0.07878  0.00726  0.71720  1.0000
  C  Sn78      1.0  0.09733  0.98592  0.67837  1.0000
  C  Sn79      1.0  0.07619  0.99573  0.63732  1.0000
  C   C180      1.0  0.03693  0.02667  0.63596  1.0000
  C  Sn80      1.0  0.02339  0.04803  0.67477  1.0000
  O  Te77      1.0  0.03155  0.05915  0.75505  1.0000
  O  Te78      1.0  0.13165  0.95509  0.68058  1.0000
  O  Te79      1.0  0.08919  0.97476  0.59809  1.0000
  O  Te80      1.0  0.98910  0.07884  0.67258  1.0000
  Mg  Mg39      1.0  0.13751  0.93529  0.61811  1.0000
  Mg  Mg40      1.0  0.98322  0.09868  0.73502  1.0000
  C  Sn81      1.0  0.80300  0.81134  0.45230  1.0000
  C   C181      1.0  0.77006  0.84361  0.45473  1.0000
  C  Sn82      1.0  0.73403  0.84240  0.42541  1.0000
  C  Sn83      1.0  0.73083  0.80819  0.39300  1.0000
  C   C182      1.0  0.76376  0.77595  0.39059  1.0000
  C  Sn84      1.0  0.79981  0.77714  0.41990  1.0000
  O  Te81      1.0  0.83873  0.81320  0.48196  1.0000
  O  Te82      1.0  0.70151  0.87503  0.42847  1.0000
  O  Te83      1.0  0.69507  0.80636  0.36334  1.0000
  O  Te84      1.0  0.83231  0.74452  0.41685  1.0000
  Mg  Mg41      1.0  0.65919  0.85830  0.38067  1.0000
  Mg  Mg42      1.0  0.87463  0.76121  0.46464  1.0000
  C  Sn85      1.0  0.04589  0.96320  0.78747  1.0000
  C   C183      1.0  0.07933  0.99536  0.78622  1.0000
  C  Sn86      1.0  0.08830  0.01669  0.82519  1.0000
  C  Sn87      1.0  0.06848  0.00563  0.86629  1.0000
  C   C184      1.0  0.04010  0.97349  0.86753  1.0000
  C  Sn88      1.0  0.02607  0.95214  0.82857  1.0000
  O  Te85      1.0  0.03242  0.94230  0.74810  1.0000
  O  Te86      1.0  0.12178  0.04874  0.82310  1.0000
  O  Te87      1.0  0.08198  0.02657  0.90568  1.0000
  O  Te88      1.0  0.99262  0.92011  0.83065  1.0000
  Mg  Mg43      1.0  0.12878  0.06797  0.88576  1.0000
  Mg  Mg44      1.0  0.98561  0.90084  0.76802  1.0000
  C  Sn89      1.0  0.29161  0.27752  0.94548  1.0000
  C   C185      1.0  0.27177  0.27478  0.90343  1.0000
  C  Sn90      1.0  0.24613  0.30979  0.88730  1.0000
  C  Sn91      1.0  0.24022  0.34836  0.91374  1.0000
  C   C186      1.0  0.26007  0.35109  0.95575  1.0000
  C  Sn92      1.0  0.28570  0.31609  0.97191  1.0000
  O  Te89      1.0  0.31710  0.24212  0.96093  1.0000
  O  Te90      1.0  0.22661  0.30628  0.84517  1.0000
  O  Te91      1.0  0.21470  0.38377  0.89825  1.0000
  O  Te92      1.0  0.29660  0.31728  0.01401  1.0000
  Mg  Mg45      1.0  0.19488  0.36332  0.83873  1.0000
  Mg  Mg46      1.0  0.32835  0.26028  0.02048  1.0000
  C  Sn93      1.0  0.60004  0.50624  0.34021  1.0000
  C   C187      1.0  0.60256  0.48494  0.29899  1.0000
  C  Sn94      1.0  0.56729  0.45905  0.28326  1.0000
  C  Sn95      1.0  0.52869  0.45437  0.30926  1.0000
  C   C188      1.0  0.52618  0.47567  0.35046  1.0000
  C  Sn96      1.0  0.56144  0.50156  0.36622  1.0000
  O  Te93      1.0  0.63570  0.53195  0.35528  1.0000
  O  Te94      1.0  0.57059  0.43807  0.24195  1.0000
  O  Te95      1.0  0.49302  0.42862  0.29416  1.0000
  O  Te96      1.0  0.55815  0.52254  0.40750  1.0000
  Mg  Mg47      1.0  0.51324  0.40661  0.23576  1.0000
  Mg  Mg48      1.0  0.61547  0.55402  0.41371  1.0000
  C  Sn97      1.0  0.20764  0.27865  0.05563  1.0000
  C   C189      1.0  0.22863  0.27598  0.09709  1.0000
  C  Sn98      1.0  0.25510  0.31100  0.11256  1.0000
  C  Sn99      1.0  0.26068  0.34951  0.08605  1.0000
  C   C190      1.0  0.23969  0.35217  0.04462  1.0000
  C  Sn100     1.0  0.21322  0.31716  0.02911  1.0000
  O  Te97      1.0  0.18134  0.24324  0.04083  1.0000
  O  Te98      1.0  0.27576  0.30756  0.15412  1.0000
  O  Te99      1.0  0.28701  0.38493  0.10088  1.0000
  O  Te100     1.0  0.20118  0.32289  0.98759  1.0000
  Mg  Mg49      1.0  0.30828  0.36458  0.15978  1.0000
  Mg  Mg50      1.0  0.16864  0.26591  0.98190  1.0000
  C  Sn101     1.0  0.95447  0.46343  0.71417  1.0000
  C   C191      1.0  0.91997  0.49410  0.71548  1.0000
  C  Sn102     1.0  0.90575  0.51522  0.67664  1.0000
  C  Sn103     1.0  0.92641  0.50547  0.63565  1.0000
  C   C192      1.0  0.96088  0.47482  0.63436  1.0000
  C  Sn104     1.0  0.97513  0.45368  0.67318  1.0000
  O  Te101     1.0  0.96815  0.44271  0.75340  1.0000
  O  Te102     1.0  0.87121  0.54576  0.67878  1.0000
  O  Te103     1.0  0.91270  0.52622  0.59640  1.0000
  O  Te104     1.0  0.00964  0.42315  0.67105  1.0000
  Mg  Mg51      1.0  0.86433  0.56534  0.61633  1.0000
  Mg  Mg52      1.0  0.01654  0.40353  0.73348  1.0000
  C  Sn105     1.0  0.70656  0.77622  0.55407  1.0000
  C   C193      1.0  0.72781  0.77273  0.59534  1.0000
  C  Sn106     1.0  0.75458  0.80733  0.61121  1.0000
  C  Sn107     1.0  0.76021  0.84625  0.58532  1.0000
  C   C194      1.0  0.73897  0.84973  0.54408  1.0000
  C  Sn108     1.0  0.71220  0.81514  0.52817  1.0000
  O  Te105     1.0  0.67995  0.74121  0.53885  1.0000
  O  Te106     1.0  0.77550  0.80307  0.65256  1.0000
  O  Te107     1.0  0.78685  0.88126  0.60057  1.0000
  O  Te108     1.0  0.69128  0.81939  0.48686  1.0000
  Mg  Mg53      1.0  0.80839  0.85980  0.65897  1.0000
  Mg  Mg54      1.0  0.65837  0.76269  0.48043  1.0000
  C  Sn109     1.0  0.45265  0.94108  0.18236  1.0000
  C   C195      1.0  0.45799  0.96407  0.14244  1.0000
  C  Sn110     1.0  0.43413  0.00597  0.13666  1.0000
  C  Sn111     1.0  0.40945  0.02531  0.17153  1.0000
  C   C196      1.0  0.40412  0.00232  0.21142  1.0000
  C  Sn112     1.0  0.42797  0.96042  0.21722  1.0000
  O  Te109     1.0  0.47177  0.89924  0.18739  1.0000
  O  Te110     1.0  0.43991  0.02831  0.09645  1.0000
  O  Te111     1.0  0.39032  0.06719  0.16646  1.0000
  O  Te112     1.0  0.42220  0.93808  0.25741  1.0000
  Mg  Mg55      1.0  0.40748  0.08453  0.10555  1.0000
  Mg  Mg56      1.0  0.45463  0.88187  0.24836  1.0000
  C  Sn113     1.0  0.70749  0.21928  0.94562  1.0000
  C   C197      1.0  0.72835  0.22311  0.90453  1.0000
  C  Sn114     1.0  0.75474  0.18870  0.88863  1.0000
  C  Sn115     1.0  0.76039  0.14965  0.91433  1.0000
  C   C198      1.0  0.73953  0.14583  0.95539  1.0000
  C  Sn116     1.0  0.71314  0.18023  0.97132  1.0000
  O  Te113     1.0  0.68126  0.25409  0.96086  1.0000
  O  Te114     1.0  0.77527  0.19329  0.84746  1.0000
  O  Te115     1.0  0.78665  0.11483  0.89905  1.0000
  O  Te116     1.0  0.68399  0.17334  0.01246  1.0000
  Mg  Mg57      1.0  0.80774  0.13673  0.84094  1.0000
  Mg  Mg58      1.0  0.65150  0.22987  0.01900  1.0000
  C  Sn117     1.0  0.45525  0.03793  0.28376  1.0000
  C   C199      1.0  0.42074  0.00689  0.28288  1.0000
  C  Sn118     1.0  0.41212  0.98628  0.32203  1.0000
  C  Sn119     1.0  0.43337  0.99694  0.36292  1.0000
  C   C200      1.0  0.46282  0.02797  0.36378  1.0000
  C  Sn120     1.0  0.47650  0.04859  0.32465  1.0000
  O  Te117     1.0  0.46835  0.05813  0.24422  1.0000
  O  Te118     1.0  0.37756  0.95534  0.32032  1.0000
  O  Te119     1.0  0.42024  0.97671  0.40247  1.0000
  O  Te120     1.0  0.51103  0.07952  0.32635  1.0000
  Mg  Mg59      1.0  0.37159  0.93675  0.38308  1.0000
  Mg  Mg60      1.0  0.51701  0.09815  0.26362  1.0000
  C  Sn121     1.0  0.19746  0.68966  0.45598  1.0000
  C   C201      1.0  0.23018  0.65706  0.45699  1.0000
  C  Sn122     1.0  0.26538  0.65876  0.42730  1.0000
  C  Sn123     1.0  0.26794  0.69379  0.39595  1.0000
  C   C202      1.0  0.23525  0.72637  0.39495  1.0000
  C  Sn124     1.0  0.20003  0.72469  0.42463  1.0000
  O  Te121     1.0  0.16258  0.68730  0.48598  1.0000
  O  Te122     1.0  0.29768  0.62578  0.42894  1.0000
  O  Te123     1.0  0.30287  0.69613  0.36593  1.0000
  O  Te124     1.0  0.16775  0.75765  0.42300  1.0000
  Mg  Mg61      1.0  0.33878  0.64344  0.38119  1.0000
  Mg  Mg62      1.0  0.12665  0.74004  0.47074  1.0000
  C  Sn125     1.0  0.90460  0.48970  0.84267  1.0000
  C   C203      1.0  0.89967  0.51154  0.80199  1.0000
  C  Sn126     1.0  0.93333  0.53900  0.78607  1.0000
  C  Sn127     1.0  0.97275  0.54473  0.81132  1.0000
  C   C204      1.0  0.97767  0.52289  0.85197  1.0000
  C  Sn128     1.0  0.94402  0.49543  0.86792  1.0000
  O  Te125     1.0  0.87052  0.46241  0.85793  1.0000
  O  Te126     1.0  0.92763  0.56050  0.74532  1.0000
  O  Te127     1.0  0.00684  0.57205  0.79602  1.0000
  O  Te128     1.0  0.94970  0.47393  0.90864  1.0000
  Mg  Mg63      1.0  0.98351  0.59421  0.73857  1.0000
  Mg  Mg64      1.0  0.89386  0.44020  0.91540  1.0000
  C  Sn129     1.0  0.61224  0.24766  0.66845  1.0000
  C   C205      1.0  0.61338  0.27843  0.70331  1.0000
  C  Sn130     1.0  0.57462  0.29899  0.71732  1.0000
  C  Sn131     1.0  0.53384  0.28855  0.69606  1.0000
  C   C206      1.0  0.53271  0.25779  0.66123  1.0000
  C  Sn132     1.0  0.57147  0.23722  0.64719  1.0000
  O  Te129     1.0  0.65140  0.22752  0.65500  1.0000
  O  Te130     1.0  0.57659  0.32965  0.75223  1.0000
  O  Te131     1.0  0.49467  0.30872  0.70954  1.0000
  O  Te132     1.0  0.56950  0.20657  0.61230  1.0000
  Mg  Mg65      1.0  0.51431  0.34828  0.75860  1.0000
  Mg  Mg66      1.0  0.63176  0.18791  0.60592  1.0000
  C  Sn133     1.0  0.18760  0.54421  0.55872  1.0000
  C   C207      1.0  0.14648  0.54105  0.53740  1.0000
  C  Sn134     1.0  0.13928  0.56208  0.49665  1.0000
  C  Sn135     1.0  0.17389  0.58675  0.47677  1.0000
  C   C208      1.0  0.21498  0.58990  0.49807  1.0000
  C  Sn136     1.0  0.22221  0.56889  0.53884  1.0000
  O  Te133     1.0  0.19406  0.52291  0.59944  1.0000
  O  Te134     1.0  0.09789  0.55845  0.47598  1.0000
  O  Te135     1.0  0.16739  0.60805  0.43601  1.0000
  O  Te136     1.0  0.26357  0.57249  0.55950  1.0000
  Mg  Mg67      1.0  0.10524  0.59337  0.42081  1.0000
  Mg  Mg68      1.0  0.25626  0.53757  0.61466  1.0000
  C  Sn137     1.0  0.04466  0.80474  0.19042  1.0000
  C   C209      1.0  0.04284  0.77119  0.15826  1.0000
  C  Sn138     1.0  0.07181  0.73525  0.16049  1.0000
  C  Sn139     1.0  0.10325  0.73279  0.19563  1.0000
  C   C210      1.0  0.10506  0.76633  0.22778  1.0000
  C  Sn140     1.0  0.07610  0.80228  0.22556  1.0000
  O  Te137     1.0  0.01537  0.84035  0.18753  1.0000
  O  Te138     1.0  0.06936  0.70212  0.12794  1.0000
  O  Te139     1.0  0.13254  0.69714  0.19850  1.0000
  O  Te140     1.0  0.07853  0.83539  0.25809  1.0000
  Mg  Mg69      1.0  0.11633  0.66024  0.14625  1.0000
  Mg  Mg70      1.0  0.03157  0.87728  0.23983  1.0000
  C  Sn141     1.0  0.64863  0.05859  0.97641  1.0000
  C   C211      1.0  0.63764  0.02350  0.00914  1.0000
  C  Sn142     1.0  0.66701  0.02408  0.04522  1.0000
  C  Sn143     1.0  0.69942  0.05816  0.04867  1.0000
  C   C212      1.0  0.70178  0.09092  0.01595  1.0000
  C  Sn144     1.0  0.68104  0.09267  0.97985  1.0000
  O  Te141     1.0  0.61893  0.05736  0.94063  1.0000
  O  Te142     1.0  0.66904  0.99094  0.07752  1.0000
  O  Te143     1.0  0.72913  0.05937  0.08448  1.0000
  O  Te144     1.0  0.68403  0.12579  0.94757  1.0000
  Mg  Mg71      1.0  0.71186  0.00690  0.12001  1.0000
  Mg  Mg72      1.0  0.63618  0.10988  0.90508  1.0000
  C  Sn145     1.0  0.45307  0.80446  0.81106  1.0000
  C   C213      1.0  0.45599  0.77095  0.84302  1.0000
  C  Sn146     1.0  0.42687  0.73480  0.84174  1.0000
  C  Sn147     1.0  0.39415  0.73206  0.80778  1.0000
  C   C214      1.0  0.39125  0.76555  0.77584  1.0000
  C  Sn148     1.0  0.42035  0.80172  0.77710  1.0000
  O  Te145     1.0  0.48253  0.84029  0.81298  1.0000
  O  Te146     1.0  0.43042  0.70171  0.87407  1.0000
  O  Te147     1.0  0.36468  0.69619  0.80588  1.0000
  O  Te148     1.0  0.41681  0.83479  0.74479  1.0000
  Mg  Mg73      1.0  0.38271  0.65946  0.85737  1.0000
  Mg  Mg74      1.0  0.46452  0.87704  0.76144  1.0000
  C  Sn149     1.0  0.85143  0.06054  0.02296  1.0000
  C   C215      1.0  0.86281  0.03028  0.98992  1.0000
  C  Sn150     1.0  0.83375  0.03067  0.95360  1.0000
  C  Sn151     1.0  0.80126  0.06432  0.95021  1.0000
  C   C216      1.0  0.79852  0.09687  0.98323  1.0000
  C  Sn152     1.0  0.81894  0.09419  0.01957  1.0000
  O  Te149     1.0  0.88083  0.05950  0.05898  1.0000
  O  Te150     1.0  0.84217  0.99775  0.92099  1.0000
  O  Te151     1.0  0.77185  0.06533  0.91415  1.0000
  O  Te152     1.0  0.81556  0.12709  0.05216  1.0000
  Mg  Mg75      1.0  0.78960  0.01330  0.87825  1.0000
  Mg  Mg76      1.0  0.86310  0.11159  0.09491  1.0000
  C  Sn153     1.0  0.94402  0.28879  0.27824  1.0000
  C   C217      1.0  0.90266  0.26794  0.27672  1.0000
  C  Sn154     1.0  0.88798  0.24282  0.31273  1.0000
  C  Sn155     1.0  0.91519  0.23846  0.35109  1.0000
  C   C218      1.0  0.95651  0.25930  0.35260  1.0000
  C  Sn156     1.0  0.97123  0.28443  0.31660  1.0000
  O  Te153     1.0  0.95803  0.31374  0.24186  1.0000
  O  Te154     1.0  0.84651  0.22228  0.31043  1.0000
  O  Te155     1.0  0.90114  0.21348  0.38749  1.0000
  O  Te156     1.0  0.01267  0.30497  0.31889  1.0000
  Mg  Mg77      1.0  0.84205  0.19184  0.36850  1.0000
  Mg  Mg78      1.0  0.01715  0.33544  0.26085  1.0000
  C  Sn157     1.0  0.31787  0.54789  0.43806  1.0000
  C   C219      1.0  0.35879  0.54398  0.45954  1.0000
  C  Sn158     1.0  0.36583  0.56336  0.50126  1.0000
  C  Sn159     1.0  0.33124  0.58711  0.52197  1.0000
  C   C220      1.0  0.29035  0.59100  0.50050  1.0000
  C  Sn160     1.0  0.28328  0.57165  0.45877  1.0000
  O  Te157     1.0  0.31157  0.52825  0.39637  1.0000
  O  Te158     1.0  0.40703  0.55901  0.52207  1.0000
  O  Te159     1.0  0.33758  0.60675  0.56370  1.0000
  O  Te160     1.0  0.24210  0.57598  0.43797  1.0000
  Mg  Mg79      1.0  0.39950  0.59163  0.57871  1.0000
  Mg  Mg80      1.0  0.24959  0.54335  0.38134  1.0000
  C  Sn161     1.0  0.11351  0.25480  0.33213  1.0000
  C   C221      1.0  0.11415  0.22430  0.29704  1.0000
  C  Sn162     1.0  0.07503  0.20421  0.28211  1.0000
  C  Sn163     1.0  0.03441  0.21484  0.30267  1.0000
  C   C222      1.0  0.03379  0.24533  0.33773  1.0000
  C  Sn164     1.0  0.07290  0.26543  0.35269  1.0000
  O  Te161     1.0  0.15302  0.27448  0.34651  1.0000
  O  Te162     1.0  0.07649  0.17381  0.24699  1.0000
  O  Te163     1.0  0.99489  0.19512  0.28826  1.0000
  O  Te164     1.0  0.07144  0.29582  0.38779  1.0000
  Mg  Mg81      1.0  0.01388  0.15579  0.23926  1.0000
  Mg  Mg82      1.0  0.13403  0.31387  0.39552  1.0000
  C  Sn165     1.0  0.64914  0.93709  0.52139  1.0000
  C   C223      1.0  0.64725  0.96994  0.48867  1.0000
  C  Sn166     1.0  0.67617  0.96890  0.45275  1.0000
  C  Sn167     1.0  0.70762  0.93430  0.44945  1.0000
  C   C224      1.0  0.70950  0.90147  0.48214  1.0000
  C  Sn168     1.0  0.68059  0.90248  0.51808  1.0000
  O  Te165     1.0  0.61990  0.93878  0.55701  1.0000
  O  Te166     1.0  0.66863  0.00212  0.42046  1.0000
  O  Te167     1.0  0.73687  0.93263  0.41379  1.0000
  O  Te168     1.0  0.68309  0.86929  0.55035  1.0000
  Mg  Mg83      1.0  0.72057  0.98541  0.37821  1.0000
  Mg  Mg84      1.0  0.63618  0.88595  0.59261  1.0000
  C  Sn169     1.0  0.58187  0.77705  0.82871  1.0000
  C   C225      1.0  0.54198  0.75394  0.83306  1.0000
  C  Sn170     1.0  0.53622  0.71233  0.81310  1.0000
  C  Sn171     1.0  0.57108  0.69340  0.78830  1.0000
  C   C226      1.0  0.61095  0.71650  0.78397  1.0000
  C  Sn172     1.0  0.61673  0.75812  0.80391  1.0000
  O  Te169     1.0  0.58690  0.81860  0.84895  1.0000
  O  Te170     1.0  0.49603  0.68987  0.81790  1.0000
  O  Te171     1.0  0.56602  0.65182  0.76805  1.0000
  O  Te172     1.0  0.65689  0.78058  0.79913  1.0000
  Mg  Mg85      1.0  0.50515  0.63416  0.78414  1.0000
  Mg  Mg86      1.0  0.64783  0.83628  0.83289  1.0000
  C  Sn173     1.0  0.15069  0.43950  0.02133  1.0000
  C   C227      1.0  0.15775  0.47459  0.98852  1.0000
  C  Sn174     1.0  0.18661  0.47312  0.95256  1.0000
  C  Sn175     1.0  0.21766  0.43814  0.94931  1.0000
  C   C228      1.0  0.21921  0.40539  0.98210  1.0000
  C  Sn176     1.0  0.18175  0.40452  0.01807  1.0000
  O  Te173     1.0  0.12152  0.44163  0.05698  1.0000
  O  Te174     1.0  0.18443  0.50627  0.92019  1.0000
  O  Te175     1.0  0.24685  0.43604  0.91362  1.0000
  O  Te176     1.0  0.18391  0.37139  0.05043  1.0000
  Mg  Mg87      1.0  0.23110  0.48891  0.87792  1.0000
  Mg  Mg88      1.0  0.13725  0.38871  0.09270  1.0000
  C  Sn177     1.0  0.94305  0.70616  0.22267  1.0000
  C   C229      1.0  0.90244  0.72781  0.22571  1.0000
  C  Sn178     1.0  0.88749  0.75483  0.19106  1.0000
  C  Sn179     1.0  0.91366  0.76029  0.15255  1.0000
  C   C230      1.0  0.95424  0.73864  0.14952  1.0000
  C  Sn180     1.0  0.96922  0.71163  0.18416  1.0000
  O  Te177     1.0  0.95734  0.67932  0.25771  1.0000
  O  Te178     1.0  0.84679  0.77614  0.19487  1.0000
  O  Te179     1.0  0.89933  0.78716  0.11750  1.0000
  O  Te180     1.0  0.00989  0.69031  0.18037  1.0000
  Mg  Mg89      1.0  0.84156  0.80923  0.13827  1.0000
  Mg  Mg90      1.0  0.01514  0.65720  0.23693  1.0000
  C  Sn181     1.0  0.34225  0.40292  0.98929  1.0000
  C   C231      1.0  0.29331  0.39726  0.01136  1.0000
  C  Sn182     1.0  0.27850  0.43219  0.03792  1.0000
  C  Sn183     1.0  0.30451  0.47130  0.04250  1.0000
  C   C232      1.0  0.34480  0.47464  0.02043  1.0000
  C  Sn184     1.0  0.36827  0.44203  0.99387  1.0000
  O  Te181     1.0  0.35641  0.36759  0.96291  1.0000
  O  Te182     1.0  0.23808  0.42806  0.05967  1.0000
  O  Te183     1.0  0.29031  0.50664  0.06891  1.0000
  O  Te184     1.0  0.40865  0.44614  0.97212  1.0000
  Mg  Mg91      1.0  0.23293  0.48525  0.09184  1.0000
  Mg  Mg92      1.0  0.41382  0.38899  0.93992  1.0000
  C  Sn185     1.0  0.45492  0.19732  0.68725  1.0000
  C   C233      1.0  0.45610  0.22971  0.65405  1.0000
  C  Sn186     1.0  0.42637  0.26506  0.65458  1.0000
  C  Sn187     1.0  0.39482  0.26812  0.68903  1.0000
  C   C234      1.0  0.39365  0.23575  0.72220  1.0000
  C  Sn188     1.0  0.42337  0.20038  0.72169  1.0000
  O  Te185     1.0  0.48496  0.16227  0.68606  1.0000
  O  Te186     1.0  0.42819  0.29703  0.62103  1.0000
  O  Te187     1.0  0.36477  0.30321  0.69019  1.0000
  O  Te188     1.0  0.42157  0.16843  0.75523  1.0000
  Mg  Mg93      1.0  0.38031  0.33853  0.63709  1.0000
  Mg  Mg94      1.0  0.46944  0.12693  0.73921  1.0000
  C  Sn189     1.0  0.84940  0.93694  0.47650  1.0000
  C   C235      1.0  0.85214  0.96973  0.50940  1.0000
  C  Sn190     1.0  0.82380  0.96861  0.54579  1.0000
  C  Sn191     1.0  0.79207  0.93398  0.54938  1.0000
  C   C236      1.0  0.78935  0.90122  0.51650  1.0000
  C  Sn192     1.0  0.81767  0.90231  0.48009  1.0000
  O  Te189     1.0  0.87807  0.93871  0.44041  1.0000
  O  Te190     1.0  0.82213  0.00176  0.57825  1.0000
  O  Te191     1.0  0.76339  0.93223  0.58551  1.0000
  O  Te192     1.0  0.81433  0.86918  0.44765  1.0000
  Mg  Mg95      1.0  0.78078  0.98495  0.62116  1.0000
  Mg  Mg96      1.0  0.86071  0.88595  0.40474  1.0000
