data_image0
_chemical_formula_structural       BO2C2H6BO2C2H6BO2C2H6BO2C2H6BO2C2H6BO2C2H6BO2C2H6BO2C2H6BO2C2H6BO2C2H6BO2C2H6BO2C2H6BO2C2H6BO2C2H6BO2C2H6BO2C2H6BO2C2H6BO2C2H6BO2C2H6BO2C2H6BO2C2H6BO2C2H6BO2C2H6BO2C2H6BO2C2H6BO2C2H6BO2C2H6BO2C2H6BO2C2H6BO2C2H6BO2C2H6BO2C2H6BO2C2H6BO2C2H6BO2C2H6BO2C2H6BO2C2H6BO2C2H6BO2C2H6BO2C2H6BO2C2H6BO2C2H6BO2C2H6BO2C2H6BO2C2H6BO2C2H6BO2C2H6BO2C2H6SiC2Si2C2Si2C2Si2C2Si2C2Si2C2Si2C2Si2C2Si2C2Si2C2Si2C2Si2C2Si2C2Si2C2Si2C2Si2C2SiC14Sn2C2HTe2HMgC2Sn2C2HTe2HMgC2Sn2C2HTe2HMgC2Sn2C2HTe2HMgC2Sn2C2HTe2HMgC2Sn2C2HTe2HMgC2Sn2C2HTe2HMgC2Sn2C2HTe2HMgC2Sn2C2HTe2HMgC2Sn2C2HTe2HMgC2Sn2C2HTe2HMgC2Sn2C2HTe2HMgC2Sn2C2HTe2HMgC2Sn2C2HTe2HMgC2Sn2C2HTe2HMgC2Sn2C2HTe2HMgC2Sn2C2HTe2HMgC2Sn2C2HTe2HMgC2Sn2C2HTe2HMgC2Sn2C2HTe2HMgC2Sn2C2HTe2HMgC2Sn2C2HTe2HMgC2Sn2C2HTe2HMgC2Sn2C2HTe2HMgC2Sn2C2HTe2HMgC2Sn2C2HTe2HMgC2Sn2C2HTe2HMgC2Sn2C2HTe2HMgC2Sn2C2HTe2HMgC2Sn2C2HTe2HMgC2Sn2C2HTe2HMgC2Sn2C2HTe2HMgC2Sn2C2HTe2HMgC2Sn2C2HTe2HMgC2Sn2C2HTe2HMgC2Sn2C2HTe2HMgC2Sn2C2HTe2HMgC2Sn2C2HTe2HMgC2Sn2C2HTe2HMgC2Sn2C2HTe2HMgC2Sn2C2HTe2HMgC2Sn2C2HTe2HMgC2Sn2C2HTe2HMgC2Sn2C2HTe2HMgC2Sn2C2HTe2HMgC2Sn2C2HTe2HMgC2Sn2C2HTe2HMgC2Sn2C2HTe2HMg
_chemical_formula_sum              "B48 O96 C332 H384 Si32 Sn96 Te96 Mg48"
_cell_length_a       30.2638
_cell_length_b       30.0914
_cell_length_c       30.082
_cell_angle_alpha    90.1298
_cell_angle_beta     90.4962
_cell_angle_gamma    90.2898

_symmetry_space_group_name_H-M    'P1'
_space_group_IT_number       1

loop_
  _space_group_symop_operation_xyz
  'x, y, z'

loop_
  _atom_site_type_symbol
  _atom_site_label
  _atom_site_symmetry_multiplicity
  _atom_site_fract_x
  _atom_site_fract_y
  _atom_site_fract_z
  _atom_site_occupancy
  B   B1        1.0  0.75164  0.64579  0.27976  1.0000
  O   O1        1.0  0.74967  0.68299  0.25272  1.0000
  O   O2        1.0  0.78157  0.64288  0.31469  1.0000
  C   C1        1.0  0.73594  0.75905  0.17570  1.0000
  C   C2        1.0  0.87312  0.59124  0.33939  1.0000
  H   H1        1.0  0.71501  0.77929  0.15362  1.0000
  H   H2        1.0  0.77056  0.76525  0.16680  1.0000
  H   H3        1.0  0.72849  0.72393  0.16876  1.0000
  H   H4        1.0  0.89394  0.56963  0.36025  1.0000
  H   H5        1.0  0.84310  0.57248  0.33045  1.0000
  H   H6        1.0  0.89123  0.59818  0.30867  1.0000
  B   B2        1.0  0.25405  0.14872  0.78173  1.0000
  O   O3        1.0  0.25207  0.18573  0.75451  1.0000
  O   O4        1.0  0.28580  0.14505  0.81492  1.0000
  C   C3        1.0  0.23729  0.25984  0.67674  1.0000
  C   C4        1.0  0.37767  0.09352  0.83997  1.0000
  H   H7        1.0  0.21657  0.28043  0.65477  1.0000
  H   H8        1.0  0.27178  0.26404  0.66638  1.0000
  H   H9        1.0  0.22791  0.22494  0.67120  1.0000
  H   H10       1.0  0.39848  0.07208  0.86103  1.0000
  H   H11       1.0  0.34779  0.07459  0.83093  1.0000
  H   H12       1.0  0.39595  0.10044  0.80934  1.0000
  B   B3        1.0  0.74972  0.35001  0.78340  1.0000
  O   O5        1.0  0.75241  0.31266  0.75658  1.0000
  O   O6        1.0  0.71871  0.35304  0.81687  1.0000
  C   C5        1.0  0.76346  0.23601  0.67928  1.0000
  C   C6        1.0  0.63097  0.40942  0.84244  1.0000
  H   H13       1.0  0.78333  0.21407  0.65807  1.0000
  H   H14       1.0  0.72882  0.23291  0.66844  1.0000
  H   H15       1.0  0.77419  0.27037  0.67318  1.0000
  H   H16       1.0  0.61069  0.43124  0.86336  1.0000
  H   H17       1.0  0.66231  0.42674  0.83606  1.0000
  H   H18       1.0  0.61362  0.40507  0.81049  1.0000
  B   B4        1.0  0.24639  0.85501  0.28276  1.0000
  O   O7        1.0  0.24785  0.81713  0.25652  1.0000
  O   O8        1.0  0.21607  0.85933  0.31670  1.0000
  C   C7        1.0  0.25848  0.73935  0.18095  1.0000
  C   C8        1.0  0.12614  0.91246  0.34256  1.0000
  H   H19       1.0  0.27851  0.71826  0.15908  1.0000
  H   H20       1.0  0.22359  0.73409  0.17192  1.0000
  H   H21       1.0  0.26684  0.77416  0.17379  1.0000
  H   H22       1.0  0.10633  0.93472  0.36349  1.0000
  H   H23       1.0  0.15595  0.93076  0.33265  1.0000
  H   H24       1.0  0.10675  0.90502  0.31239  1.0000
  B   B5        1.0  0.24885  0.14962  0.21746  1.0000
  O   O9        1.0  0.25239  0.18740  0.24363  1.0000
  O   O10       1.0  0.21624  0.14521  0.18518  1.0000
  C   C9        1.0  0.26640  0.26140  0.32359  1.0000
  C   C10       1.0  0.12553  0.09270  0.15844  1.0000
  H   H25       1.0  0.28746  0.28204  0.34549  1.0000
  H   H26       1.0  0.23206  0.26532  0.33442  1.0000
  H   H27       1.0  0.27573  0.22655  0.32877  1.0000
  H   H28       1.0  0.10497  0.07144  0.13664  1.0000
  H   H29       1.0  0.15589  0.07440  0.16636  1.0000
  H   H30       1.0  0.10744  0.09782  0.18952  1.0000
  B   B6        1.0  0.74646  0.64489  0.71675  1.0000
  O   O11       1.0  0.74999  0.68265  0.74309  1.0000
  O   O12       1.0  0.71454  0.64072  0.68357  1.0000
  C   C11       1.0  0.76607  0.75795  0.82092  1.0000
  C   C12       1.0  0.62211  0.59012  0.66000  1.0000
  H   H31       1.0  0.78739  0.77830  0.84283  1.0000
  H   H32       1.0  0.73165  0.76343  0.83075  1.0000
  H   H33       1.0  0.77394  0.72288  0.82709  1.0000
  H   H34       1.0  0.59941  0.56940  0.63989  1.0000
  H   H35       1.0  0.65234  0.57090  0.66592  1.0000
  H   H36       1.0  0.60640  0.59600  0.69225  1.0000
  B   B7        1.0  0.25236  0.85639  0.71880  1.0000
  O   O13       1.0  0.25009  0.81884  0.74533  1.0000
  O   O14       1.0  0.28339  0.86080  0.68545  1.0000
  C   C13       1.0  0.23576  0.74504  0.82377  1.0000
  C   C14       1.0  0.37747  0.90842  0.66052  1.0000
  H   H37       1.0  0.21532  0.72506  0.84638  1.0000
  H   H38       1.0  0.27055  0.73983  0.83301  1.0000
  H   H39       1.0  0.22803  0.78020  0.82959  1.0000
  H   H40       1.0  0.39910  0.92888  0.63948  1.0000
  H   H41       1.0  0.34876  0.92867  0.66941  1.0000
  H   H42       1.0  0.39579  0.90080  0.69123  1.0000
  B   B8        1.0  0.75127  0.34830  0.21726  1.0000
  O   O15       1.0  0.74967  0.31218  0.24566  1.0000
  O   O16       1.0  0.78158  0.35065  0.18315  1.0000
  C   C15       1.0  0.73621  0.23811  0.32497  1.0000
  C   C16       1.0  0.87150  0.40471  0.16121  1.0000
  H   H43       1.0  0.71577  0.21778  0.34729  1.0000
  H   H44       1.0  0.77095  0.23332  0.33461  1.0000
  H   H45       1.0  0.72794  0.27313  0.33080  1.0000
  H   H46       1.0  0.89257  0.42642  0.14085  1.0000
  H   H47       1.0  0.84049  0.42240  0.16742  1.0000
  H   H48       1.0  0.88835  0.39987  0.19332  1.0000
  B   B9        1.0  0.27946  0.75394  0.64861  1.0000
  O   O17       1.0  0.25233  0.75205  0.68547  1.0000
  O   O18       1.0  0.31235  0.78579  0.64480  1.0000
  C   C17       1.0  0.17726  0.73923  0.76354  1.0000
  C   C18       1.0  0.33791  0.87799  0.59256  1.0000
  H   H49       1.0  0.15615  0.71904  0.78536  1.0000
  H   H50       1.0  0.16806  0.77421  0.76808  1.0000
  H   H51       1.0  0.16952  0.72986  0.72902  1.0000
  H   H52       1.0  0.35895  0.89829  0.57078  1.0000
  H   H53       1.0  0.32769  0.84825  0.57379  1.0000
  H   H54       1.0  0.30815  0.89731  0.59994  1.0000
  B   B10       1.0  0.78183  0.24657  0.14983  1.0000
  O   O19       1.0  0.75474  0.24507  0.18679  1.0000
  O   O20       1.0  0.81632  0.27683  0.14657  1.0000
  C   C19       1.0  0.67834  0.23141  0.26430  1.0000
  C   C20       1.0  0.83928  0.36859  0.09219  1.0000
  H   H55       1.0  0.66859  0.26622  0.26895  1.0000
  H   H56       1.0  0.67099  0.22214  0.22967  1.0000
  H   H57       1.0  0.65738  0.21080  0.28586  1.0000
  H   H58       1.0  0.85951  0.39048  0.07117  1.0000
  H   H59       1.0  0.83342  0.33752  0.07377  1.0000
  H   H60       1.0  0.80724  0.38480  0.09703  1.0000
  B   B11       1.0  0.78081  0.74709  0.35145  1.0000
  O   O21       1.0  0.75428  0.74950  0.31374  1.0000
  O   O22       1.0  0.81456  0.71641  0.35526  1.0000
  C   C21       1.0  0.67804  0.76228  0.23569  1.0000
  C   C22       1.0  0.83640  0.62298  0.40744  1.0000
  H   H61       1.0  0.65667  0.78297  0.21445  1.0000
  H   H62       1.0  0.66885  0.72737  0.22990  1.0000
  H   H63       1.0  0.67070  0.77036  0.27048  1.0000
  H   H64       1.0  0.85632  0.60100  0.42879  1.0000
  H   H65       1.0  0.82869  0.65292  0.42677  1.0000
  H   H66       1.0  0.80519  0.60570  0.39980  1.0000
  B   B12       1.0  0.28508  0.24925  0.85254  1.0000
  O   O23       1.0  0.25893  0.25215  0.81462  1.0000
  O   O24       1.0  0.31868  0.21835  0.85665  1.0000
  C   C23       1.0  0.18189  0.26710  0.73863  1.0000
  C   C24       1.0  0.34056  0.12543  0.90781  1.0000
  H   H67       1.0  0.16052  0.28797  0.71758  1.0000
  H   H68       1.0  0.17128  0.23240  0.73416  1.0000
  H   H69       1.0  0.17611  0.27639  0.77343  1.0000
  H   H70       1.0  0.36065  0.10401  0.92958  1.0000
  H   H71       1.0  0.33229  0.15550  0.92668  1.0000
  H   H72       1.0  0.30964  0.10762  0.90017  1.0000
  B   B13       1.0  0.21661  0.25054  0.14831  1.0000
  O   O25       1.0  0.24323  0.25449  0.18580  1.0000
  O   O26       1.0  0.18336  0.21887  0.14504  1.0000
  C   C25       1.0  0.32129  0.27018  0.26144  1.0000
  C   C26       1.0  0.16116  0.12821  0.09162  1.0000
  H   H73       1.0  0.33250  0.23579  0.26583  1.0000
  H   H74       1.0  0.32670  0.27947  0.22661  1.0000
  H   H75       1.0  0.34245  0.29173  0.28235  1.0000
  H   H76       1.0  0.14120  0.10698  0.06925  1.0000
  H   H77       1.0  0.16857  0.15919  0.07386  1.0000
  H   H78       1.0  0.19252  0.11109  0.09810  1.0000
  B   B14       1.0  0.71640  0.74595  0.64603  1.0000
  O   O27       1.0  0.74346  0.74854  0.68331  1.0000
  O   O28       1.0  0.68306  0.71441  0.64256  1.0000
  C   C27       1.0  0.82228  0.76240  0.75936  1.0000
  C   C28       1.0  0.65423  0.62424  0.59062  1.0000
  H   H79       1.0  0.84426  0.78319  0.78016  1.0000
  H   H80       1.0  0.83163  0.72754  0.76450  1.0000
  H   H81       1.0  0.82860  0.77073  0.72444  1.0000
  H   H82       1.0  0.63220  0.60365  0.56965  1.0000
  H   H83       1.0  0.66149  0.65494  0.57234  1.0000
  H   H84       1.0  0.68535  0.60610  0.59511  1.0000
  B   B15       1.0  0.71632  0.24990  0.85372  1.0000
  O   O29       1.0  0.74303  0.24752  0.81663  1.0000
  O   O30       1.0  0.68307  0.28121  0.85706  1.0000
  C   C29       1.0  0.81868  0.22767  0.74211  1.0000
  C   C30       1.0  0.66356  0.37230  0.91038  1.0000
  H   H85       1.0  0.83896  0.20539  0.72168  1.0000
  H   H86       1.0  0.83087  0.26175  0.73725  1.0000
  H   H87       1.0  0.82419  0.21882  0.77712  1.0000
  H   H88       1.0  0.64432  0.39433  0.93207  1.0000
  H   H89       1.0  0.66901  0.34102  0.92829  1.0000
  H   H90       1.0  0.69590  0.38808  0.90510  1.0000
  B   B16       1.0  0.21789  0.75630  0.35686  1.0000
  O   O31       1.0  0.24335  0.75394  0.31889  1.0000
  O   O32       1.0  0.18526  0.78795  0.36162  1.0000
  C   C31       1.0  0.31707  0.73484  0.24117  1.0000
  C   C32       1.0  0.16516  0.88209  0.41043  1.0000
  H   H91       1.0  0.32738  0.76936  0.23523  1.0000
  H   H92       1.0  0.32457  0.72690  0.27605  1.0000
  H   H93       1.0  0.33745  0.71319  0.22017  1.0000
  H   H94       1.0  0.14580  0.90411  0.43203  1.0000
  H   H95       1.0  0.17402  0.85253  0.42984  1.0000
  H   H96       1.0  0.19583  0.89968  0.40196  1.0000
  B   B17       1.0  0.64662  0.28366  0.75181  1.0000
  O   O33       1.0  0.68333  0.25644  0.74987  1.0000
  O   O34       1.0  0.64309  0.31669  0.78376  1.0000
  C   C33       1.0  0.75386  0.17466  0.73574  1.0000
  C   C34       1.0  0.59358  0.34188  0.87513  1.0000
  H   H97       1.0  0.77343  0.15185  0.71517  1.0000
  H   H98       1.0  0.75779  0.16441  0.77057  1.0000
  H   H99       1.0  0.71894  0.17024  0.72638  1.0000
  H   H100      1.0  0.57361  0.36297  0.89708  1.0000
  H   H101      1.0  0.57466  0.33643  0.84426  1.0000
  H   H102      1.0  0.59775  0.30958  0.89154  1.0000
  B   B18       1.0  0.14405  0.78348  0.25726  1.0000
  O   O35       1.0  0.18118  0.75685  0.25448  1.0000
  O   O36       1.0  0.14083  0.81696  0.28875  1.0000
  C   C35       1.0  0.25443  0.67892  0.23919  1.0000
  C   C36       1.0  0.09512  0.84532  0.38227  1.0000
  H   H103      1.0  0.27352  0.65643  0.21784  1.0000
  H   H104      1.0  0.26097  0.66962  0.27392  1.0000
  H   H105      1.0  0.21920  0.67293  0.23225  1.0000
  H   H106      1.0  0.07528  0.86679  0.40397  1.0000
  H   H107      1.0  0.07465  0.83635  0.35327  1.0000
  H   H108      1.0  0.10249  0.81473  0.40071  1.0000
  B   B19       1.0  0.35182  0.78320  0.74759  1.0000
  O   O37       1.0  0.31426  0.75685  0.75017  1.0000
  O   O38       1.0  0.35522  0.81719  0.71689  1.0000
  C   C37       1.0  0.23772  0.68181  0.76835  1.0000
  C   C38       1.0  0.40508  0.83870  0.62329  1.0000
  H   H109      1.0  0.23164  0.67109  0.73390  1.0000
  H   H110      1.0  0.27248  0.67502  0.77653  1.0000
  H   H111      1.0  0.21712  0.66102  0.79009  1.0000
  H   H112      1.0  0.42678  0.85864  0.60185  1.0000
  H   H113      1.0  0.42420  0.82942  0.65302  1.0000
  H   H114      1.0  0.39646  0.80807  0.60520  1.0000
  B   B20       1.0  0.85197  0.27919  0.25035  1.0000
  O   O39       1.0  0.81492  0.25216  0.25291  1.0000
  O   O40       1.0  0.85508  0.31263  0.21894  1.0000
  C   C39       1.0  0.73994  0.17505  0.26955  1.0000
  C   C40       1.0  0.90777  0.33681  0.12845  1.0000
  H   H115      1.0  0.72004  0.15387  0.29157  1.0000
  H   H116      1.0  0.73386  0.16402  0.23520  1.0000
  H   H117      1.0  0.77492  0.16915  0.27750  1.0000
  H   H118      1.0  0.92888  0.35796  0.10756  1.0000
  H   H119      1.0  0.92573  0.33043  0.15965  1.0000
  H   H120      1.0  0.90313  0.30492  0.11115  1.0000
  B   B21       1.0  0.14760  0.21861  0.24954  1.0000
  O   O41       1.0  0.18505  0.24521  0.25242  1.0000
  O   O42       1.0  0.14313  0.18541  0.21775  1.0000
  C   C41       1.0  0.25842  0.32454  0.26876  1.0000
  C   C42       1.0  0.09218  0.16159  0.12414  1.0000
  H   H121      1.0  0.27827  0.34616  0.29085  1.0000
  H   H122      1.0  0.26340  0.33589  0.23448  1.0000
  H   H123      1.0  0.22348  0.32946  0.27697  1.0000
  H   H124      1.0  0.07158  0.14117  0.10159  1.0000
  H   H125      1.0  0.07293  0.16809  0.15423  1.0000
  H   H126      1.0  0.09833  0.19353  0.10765  1.0000
  B   B22       1.0  0.64747  0.71692  0.74747  1.0000
  O   O43       1.0  0.68514  0.74319  0.75016  1.0000
  O   O44       1.0  0.64301  0.68313  0.71640  1.0000
  C   C43       1.0  0.76209  0.82006  0.76456  1.0000
  C   C44       1.0  0.58842  0.65960  0.62750  1.0000
  H   H127      1.0  0.78325  0.84120  0.78588  1.0000
  H   H128      1.0  0.76732  0.83021  0.72993  1.0000
  H   H129      1.0  0.72755  0.82706  0.77292  1.0000
  H   H130      1.0  0.56583  0.63957  0.60661  1.0000
  H   H131      1.0  0.57151  0.66679  0.65885  1.0000
  H   H132      1.0  0.59419  0.69129  0.61040  1.0000
  B   B23       1.0  0.85184  0.71652  0.25190  1.0000
  O   O45       1.0  0.81494  0.74349  0.24942  1.0000
  O   O46       1.0  0.85519  0.68298  0.28317  1.0000
  C   C45       1.0  0.73846  0.82051  0.23312  1.0000
  C   C46       1.0  0.90522  0.65939  0.37711  1.0000
  H   H133      1.0  0.71791  0.84175  0.21160  1.0000
  H   H134      1.0  0.73236  0.83016  0.26776  1.0000
  H   H135      1.0  0.77323  0.82785  0.22580  1.0000
  H   H136      1.0  0.92574  0.63875  0.39923  1.0000
  H   H137      1.0  0.92479  0.66716  0.34752  1.0000
  H   H138      1.0  0.89853  0.69070  0.39457  1.0000
  B   B24       1.0  0.35564  0.21877  0.75209  1.0000
  O   O47       1.0  0.31860  0.24552  0.74962  1.0000
  O   O48       1.0  0.35942  0.18543  0.78355  1.0000
  C   C47       1.0  0.24398  0.32306  0.73192  1.0000
  C   C48       1.0  0.40931  0.16200  0.87746  1.0000
  H   H139      1.0  0.22313  0.34422  0.71063  1.0000
  H   H140      1.0  0.23970  0.33403  0.76647  1.0000
  H   H141      1.0  0.27858  0.32905  0.72284  1.0000
  H   H142      1.0  0.43019  0.14134  0.89921  1.0000
  H   H143      1.0  0.42860  0.17028  0.84781  1.0000
  H   H144      1.0  0.40242  0.19307  0.89529  1.0000
  B   B25       1.0  0.89620  0.00195  0.53129  1.0000
  O   O49       1.0  0.93330  0.99983  0.50465  1.0000
  O   O50       1.0  0.89259  0.03334  0.56476  1.0000
  C   C49       1.0  0.00995  0.98218  0.42991  1.0000
  C   C50       1.0  0.84355  0.12820  0.58423  1.0000
  H   H145      1.0  0.03035  0.96038  0.40908  1.0000
  H   H146      1.0  0.01634  0.01666  0.41979  1.0000
  H   H147      1.0  0.97512  0.97452  0.42252  1.0000
  H   H148      1.0  0.82201  0.15041  0.60339  1.0000
  H   H149      1.0  0.82413  0.09856  0.57514  1.0000
  H   H150      1.0  0.85252  0.14546  0.55344  1.0000
  B   B26       1.0  0.39755  0.50258  0.03031  1.0000
  O   O51       1.0  0.43376  0.50013  0.00245  1.0000
  O   O52       1.0  0.39509  0.53349  0.06437  1.0000
  C   C51       1.0  0.50946  0.48438  0.92486  1.0000
  C   C52       1.0  0.34466  0.62477  0.09006  1.0000
  H   H151      1.0  0.52965  0.46304  0.90337  1.0000
  H   H152      1.0  0.51555  0.51906  0.91523  1.0000
  H   H153      1.0  0.47457  0.47666  0.91783  1.0000
  H   H154      1.0  0.32440  0.64669  0.11089  1.0000
  H   H155      1.0  0.32563  0.59421  0.08366  1.0000
  H   H156      1.0  0.34974  0.64156  0.05810  1.0000
  B   B27       1.0  0.60180  0.99516  0.03213  1.0000
  O   O53       1.0  0.56447  0.99765  0.00513  1.0000
  O   O54       1.0  0.60508  0.96485  0.06656  1.0000
  C   C53       1.0  0.48783  0.00822  0.92598  1.0000
  C   C54       1.0  0.65550  0.87399  0.09489  1.0000
  H   H157      1.0  0.46721  0.02842  0.90354  1.0000
  H   H158      1.0  0.48177  0.97310  0.91779  1.0000
  H   H159      1.0  0.52257  0.01580  0.91874  1.0000
  H   H160      1.0  0.67644  0.85354  0.11679  1.0000
  H   H161      1.0  0.67440  0.90394  0.08619  1.0000
  H   H162      1.0  0.64931  0.85504  0.06420  1.0000
  B   B28       1.0  0.10418  0.50056  0.53413  1.0000
  O   O55       1.0  0.06646  0.50477  0.50827  1.0000
  O   O56       1.0  0.10743  0.46878  0.56716  1.0000
  C   C55       1.0  0.99291  0.52130  0.42854  1.0000
  C   C56       1.0  0.15588  0.37499  0.58966  1.0000
  H   H163      1.0  0.97262  0.54249  0.40675  1.0000
  H   H164      1.0  0.98821  0.48669  0.41773  1.0000
  H   H165      1.0  0.02771  0.53028  0.42331  1.0000
  H   H166      1.0  0.17630  0.35224  0.60968  1.0000
  H   H167      1.0  0.17569  0.40490  0.58305  1.0000
  H   H168      1.0  0.14883  0.35861  0.55769  1.0000
  B   B29       1.0  0.40045  0.50264  0.46233  1.0000
  O   O57       1.0  0.43790  0.50656  0.48884  1.0000
  O   O58       1.0  0.39712  0.47100  0.42888  1.0000
  C   C57       1.0  0.51115  0.51696  0.56909  1.0000
  C   C58       1.0  0.33892  0.38434  0.40289  1.0000
  H   H169      1.0  0.53274  0.53683  0.59120  1.0000
  H   H170      1.0  0.51264  0.48227  0.58030  1.0000
  H   H171      1.0  0.47714  0.52865  0.57346  1.0000
  H   H172      1.0  0.31691  0.36372  0.38193  1.0000
  H   H173      1.0  0.32294  0.41668  0.40763  1.0000
  H   H174      1.0  0.34167  0.36822  0.43552  1.0000
  B   B30       1.0  0.89851  0.99730  0.96788  1.0000
  O   O59       1.0  0.93553  0.00007  0.99523  1.0000
  O   O60       1.0  0.89526  0.96636  0.93378  1.0000
  C   C59       1.0  0.01085  0.01577  0.07398  1.0000
  C   C60       1.0  0.84330  0.87491  0.90992  1.0000
  H   H175      1.0  0.03159  0.03698  0.09564  1.0000
  H   H176      1.0  0.01572  0.98112  0.08426  1.0000
  H   H177      1.0  0.97616  0.02436  0.07998  1.0000
  H   H178      1.0  0.82144  0.85422  0.88888  1.0000
  H   H179      1.0  0.82546  0.90554  0.91797  1.0000
  H   H180      1.0  0.84929  0.85683  0.94106  1.0000
  B   B31       1.0  0.10576  0.50449  0.96638  1.0000
  O   O61       1.0  0.06891  0.50208  0.99325  1.0000
  O   O62       1.0  0.10938  0.53595  0.93307  1.0000
  C   C61       1.0  0.99501  0.48784  0.07162  1.0000
  C   C62       1.0  0.15876  0.62918  0.90738  1.0000
  H   H181      1.0  0.97512  0.46684  0.09382  1.0000
  H   H182      1.0  0.98925  0.52266  0.08084  1.0000
  H   H183      1.0  0.02999  0.48046  0.07813  1.0000
  H   H184      1.0  0.17919  0.65045  0.88595  1.0000
  H   H185      1.0  0.17798  0.59933  0.91537  1.0000
  H   H186      1.0  0.15297  0.64733  0.93849  1.0000
  B   B32       1.0  0.60369  0.00207  0.46659  1.0000
  O   O63       1.0  0.56678  0.99974  0.49341  1.0000
  O   O64       1.0  0.60725  0.03360  0.43331  1.0000
  C   C63       1.0  0.49073  0.97751  0.56822  1.0000
  C   C64       1.0  0.65718  0.12935  0.41771  1.0000
  H   H187      1.0  0.47031  0.95462  0.58796  1.0000
  H   H188      1.0  0.48460  0.01141  0.58022  1.0000
  H   H189      1.0  0.52555  0.96966  0.57497  1.0000
  H   H190      1.0  0.67893  0.15199  0.39915  1.0000
  H   H191      1.0  0.67630  0.09951  0.42596  1.0000
  H   H192      1.0  0.64844  0.14591  0.44898  1.0000
  B   B33       1.0  0.00417  0.53343  0.89619  1.0000
  O   O65       1.0  0.00211  0.50648  0.93341  1.0000
  O   O66       1.0  0.03541  0.56701  0.89280  1.0000
  C   C65       1.0  0.99063  0.42931  0.01137  1.0000
  C   C66       1.0  0.12501  0.59186  0.83985  1.0000
  H   H193      1.0  0.97055  0.40772  0.03283  1.0000
  H   H194      1.0  0.02546  0.42047  0.01658  1.0000
  H   H195      1.0  0.98186  0.42157  0.97669  1.0000
  H   H196      1.0  0.14496  0.61292  0.81777  1.0000
  H   H197      1.0  0.09458  0.58273  0.82182  1.0000
  H   H198      1.0  0.14367  0.56129  0.84624  1.0000
  B   B34       1.0  0.50404  0.03336  0.39500  1.0000
  O   O67       1.0  0.50191  0.00675  0.43248  1.0000
  O   O68       1.0  0.53549  0.06675  0.39096  1.0000
  C   C67       1.0  0.48814  0.92453  0.50286  1.0000
  C   C68       1.0  0.62967  0.09493  0.34588  1.0000
  H   H199      1.0  0.46785  0.90101  0.52200  1.0000
  H   H200      1.0  0.52295  0.91542  0.50776  1.0000
  H   H201      1.0  0.47989  0.91991  0.46751  1.0000
  H   H202      1.0  0.65139  0.11715  0.32678  1.0000
  H   H203      1.0  0.60095  0.08670  0.32480  1.0000
  H   H204      1.0  0.64788  0.06410  0.35234  1.0000
  B   B35       1.0  0.99574  0.03149  0.60462  1.0000
  O   O69       1.0  0.99780  0.00482  0.56701  1.0000
  O   O70       1.0  0.96441  0.06464  0.60893  1.0000
  C   C69       1.0  0.01198  0.92593  0.49212  1.0000
  C   C70       1.0  0.87059  0.09204  0.65507  1.0000
  H   H205      1.0  0.03251  0.90367  0.47192  1.0000
  H   H206      1.0  0.97723  0.91675  0.48620  1.0000
  H   H207      1.0  0.01974  0.91950  0.52725  1.0000
  H   H208      1.0  0.84893  0.11373  0.67470  1.0000
  H   H209      1.0  0.89919  0.08344  0.67601  1.0000
  H   H210      1.0  0.85220  0.06130  0.64768  1.0000
  B   B36       1.0  0.49879  0.53067  0.10031  1.0000
  O   O71       1.0  0.50008  0.50435  0.06255  1.0000
  O   O72       1.0  0.46876  0.56493  0.10473  1.0000
  C   C71       1.0  0.51248  0.42712  0.98612  1.0000
  C   C72       1.0  0.38025  0.59033  0.15797  1.0000
  H   H211      1.0  0.53318  0.40519  0.96573  1.0000
  H   H212      1.0  0.47781  0.41785  0.97997  1.0000
  H   H213      1.0  0.52014  0.42029  0.02120  1.0000
  H   H214      1.0  0.35936  0.61083  0.17959  1.0000
  H   H215      1.0  0.41114  0.58352  0.17608  1.0000
  H   H216      1.0  0.36309  0.55852  0.15244  1.0000
  B   B37       1.0  0.50063  0.46598  0.39445  1.0000
  O   O73       1.0  0.50443  0.49321  0.43148  1.0000
  O   O74       1.0  0.46849  0.43313  0.39100  1.0000
  C   C73       1.0  0.52419  0.57109  0.50643  1.0000
  C   C74       1.0  0.37894  0.41313  0.33536  1.0000
  H   H217      1.0  0.54625  0.59123  0.52780  1.0000
  H   H218      1.0  0.49062  0.58440  0.50955  1.0000
  H   H219      1.0  0.53465  0.57574  0.47187  1.0000
  H   H220      1.0  0.35676  0.39370  0.31346  1.0000
  H   H221      1.0  0.41071  0.41689  0.31837  1.0000
  H   H222      1.0  0.36455  0.44634  0.33926  1.0000
  B   B38       1.0  0.99966  0.96716  0.89894  1.0000
  O   O75       1.0  0.00230  0.99352  0.93665  1.0000
  O   O76       1.0  0.96864  0.93333  0.89482  1.0000
  C   C75       1.0  0.01615  0.07189  0.01177  1.0000
  C   C76       1.0  0.87659  0.90946  0.84144  1.0000
  H   H223      1.0  0.03711  0.09372  0.03259  1.0000
  H   H224      1.0  0.98165  0.08199  0.01637  1.0000
  H   H225      1.0  0.02479  0.07794  0.97690  1.0000
  H   H226      1.0  0.85510  0.88871  0.82007  1.0000
  H   H227      1.0  0.90681  0.91685  0.82284  1.0000
  H   H228      1.0  0.85941  0.94094  0.84743  1.0000
  B   B39       1.0  0.50036  0.96767  0.10242  1.0000
  O   O77       1.0  0.49793  0.99366  0.06455  1.0000
  O   O78       1.0  0.53158  0.93455  0.10723  1.0000
  C   C77       1.0  0.48489  0.06830  0.98472  1.0000
  C   C78       1.0  0.62269  0.91290  0.16122  1.0000
  H   H229      1.0  0.46370  0.08894  0.96323  1.0000
  H   H230      1.0  0.51939  0.07774  0.97846  1.0000
  H   H231      1.0  0.47739  0.07671  0.01939  1.0000
  H   H232      1.0  0.64367  0.89326  0.18381  1.0000
  H   H233      1.0  0.59258  0.92181  0.17923  1.0000
  H   H234      1.0  0.64056  0.94376  0.15350  1.0000
  B   B40       1.0  0.00200  0.47055  0.60328  1.0000
  O   O79       1.0  0.99958  0.49752  0.56604  1.0000
  O   O80       1.0  0.03353  0.43756  0.60723  1.0000
  C   C79       1.0  0.98672  0.57698  0.49107  1.0000
  C   C80       1.0  0.12465  0.40954  0.65917  1.0000
  H   H235      1.0  0.96635  0.59880  0.46999  1.0000
  H   H236      1.0  0.02140  0.58710  0.48710  1.0000
  H   H237      1.0  0.97756  0.58297  0.52582  1.0000
  H   H238      1.0  0.14507  0.38750  0.67999  1.0000
  H   H239      1.0  0.09488  0.41783  0.67803  1.0000
  H   H240      1.0  0.14344  0.44038  0.65390  1.0000
  B   B41       1.0  0.53152  0.89417  0.00392  1.0000
  O   O81       1.0  0.50446  0.93112  0.00172  1.0000
  O   O82       1.0  0.56458  0.89058  0.03580  1.0000
  C   C81       1.0  0.42752  0.00697  0.98359  1.0000
  C   C82       1.0  0.58705  0.84274  0.13111  1.0000
  H   H241      1.0  0.40592  0.02650  0.96149  1.0000
  H   H242      1.0  0.41831  0.01445  0.01803  1.0000
  H   H243      1.0  0.42051  0.97164  0.97734  1.0000
  H   H244      1.0  0.60742  0.82250  0.15374  1.0000
  H   H245      1.0  0.57937  0.82248  0.10160  1.0000
  H   H246      1.0  0.55586  0.84995  0.14803  1.0000
  B   B42       1.0  0.03214  0.40133  0.50117  1.0000
  O   O83       1.0  0.00660  0.43929  0.49770  1.0000
  O   O84       1.0  0.06468  0.39720  0.53347  1.0000
  C   C83       1.0  0.93028  0.51513  0.48323  1.0000
  C   C84       1.0  0.08670  0.34315  0.62382  1.0000
  H   H247      1.0  0.90932  0.53606  0.46181  1.0000
  H   H248      1.0  0.91948  0.51976  0.51769  1.0000
  H   H249      1.0  0.92408  0.48030  0.47397  1.0000
  H   H250      1.0  0.10649  0.32056  0.64464  1.0000
  H   H251      1.0  0.07832  0.32553  0.59284  1.0000
  H   H252      1.0  0.05580  0.34994  0.64142  1.0000
  B   B43       1.0  0.03543  0.60478  0.99702  1.0000
  O   O85       1.0  0.00883  0.56720  0.99842  1.0000
  O   O86       1.0  0.06889  0.60914  0.96609  1.0000
  C   C85       1.0  0.93271  0.48937  0.01523  1.0000
  C   C86       1.0  0.08889  0.65988  0.87253  1.0000
  H   H253      1.0  0.91220  0.46864  0.03712  1.0000
  H   H254      1.0  0.92227  0.48280  0.98077  1.0000
  H   H255      1.0  0.92552  0.52432  0.02278  1.0000
  H   H256      1.0  0.10921  0.68248  0.85236  1.0000
  H   H257      1.0  0.07945  0.67782  0.90281  1.0000
  H   H258      1.0  0.05860  0.65234  0.85353  1.0000
  B   B44       1.0  0.53113  0.10102  0.49901  1.0000
  O   O87       1.0  0.50502  0.06315  0.50223  1.0000
  O   O88       1.0  0.56455  0.10469  0.46801  1.0000
  C   C87       1.0  0.42991  0.98385  0.51055  1.0000
  C   C88       1.0  0.58995  0.16079  0.37884  1.0000
  H   H259      1.0  0.40891  0.96102  0.52976  1.0000
  H   H260      1.0  0.42046  0.98051  0.47535  1.0000
  H   H261      1.0  0.42232  0.01790  0.52115  1.0000
  H   H262      1.0  0.61082  0.18376  0.35968  1.0000
  H   H263      1.0  0.57984  0.17812  0.40925  1.0000
  H   H264      1.0  0.56010  0.15378  0.35897  1.0000
  B   B45       1.0  0.46441  0.39840  0.49547  1.0000
  O   O89       1.0  0.49133  0.43561  0.49821  1.0000
  O   O90       1.0  0.43102  0.39516  0.46378  1.0000
  C   C89       1.0  0.57408  0.50460  0.51588  1.0000
  C   C90       1.0  0.40511  0.34314  0.37344  1.0000
  H   H265      1.0  0.59652  0.52398  0.53755  1.0000
  H   H266      1.0  0.58599  0.50767  0.48162  1.0000
  H   H267      1.0  0.57671  0.46954  0.52562  1.0000
  H   H268      1.0  0.38373  0.32292  0.35144  1.0000
  H   H269      1.0  0.40898  0.32517  0.40495  1.0000
  H   H270      1.0  0.43774  0.34552  0.35787  1.0000
  B   B46       1.0  0.96831  0.89661  0.99925  1.0000
  O   O91       1.0  0.99515  0.93397  0.00253  1.0000
  O   O92       1.0  0.93530  0.89294  0.96721  1.0000
  C   C91       1.0  0.07234  0.01039  0.01782  1.0000
  C   C92       1.0  0.91083  0.84081  0.87518  1.0000
  H   H271      1.0  0.09379  0.03157  0.03880  1.0000
  H   H272      1.0  0.08225  0.01513  0.98310  1.0000
  H   H273      1.0  0.07876  0.97563  0.02673  1.0000
  H   H274      1.0  0.88988  0.81957  0.85376  1.0000
  H   H275      1.0  0.91815  0.82219  0.90571  1.0000
  H   H276      1.0  0.94210  0.84654  0.85779  1.0000
  B   B47       1.0  0.96935  0.10187  0.50260  1.0000
  O   O93       1.0  0.99542  0.06423  0.49996  1.0000
  O   O94       1.0  0.93574  0.10527  0.53336  1.0000
  C   C93       1.0  0.07025  0.98627  0.48852  1.0000
  C   C94       1.0  0.91106  0.15866  0.62413  1.0000
  H   H277      1.0  0.09157  0.96491  0.46820  1.0000
  H   H278      1.0  0.07931  0.98107  0.52356  1.0000
  H   H279      1.0  0.07780  0.02098  0.48016  1.0000
  H   H280      1.0  0.89041  0.18117  0.64390  1.0000
  H   H281      1.0  0.92144  0.17670  0.59425  1.0000
  H   H282      1.0  0.94079  0.15114  0.64387  1.0000
  B   B48       1.0  0.46883  0.60256  0.00018  1.0000
  O   O95       1.0  0.49519  0.56507  0.99759  1.0000
  O   O96       1.0  0.43578  0.60670  0.03154  1.0000
  C   C95       1.0  0.57054  0.48774  0.98272  1.0000
  C   C96       1.0  0.41387  0.65887  0.12329  1.0000
  H   H283      1.0  0.57789  0.52258  0.97469  1.0000
  H   H284      1.0  0.59176  0.46674  0.96190  1.0000
  H   H285      1.0  0.58003  0.48217  0.01759  1.0000
  H   H286      1.0  0.39402  0.68016  0.14514  1.0000
  H   H287      1.0  0.42021  0.67741  0.09257  1.0000
  H   H288      1.0  0.44575  0.65311  0.13997  1.0000
  Si  Si1       1.0  0.76228  0.73590  0.26113  1.0000
  C   C97       1.0  0.72700  0.77118  0.22466  1.0000
  C   C98       1.0  0.86220  0.63430  0.36490  1.0000
  Si  Si2       1.0  0.82736  0.67015  0.32854  1.0000
  Si  Si3       1.0  0.26599  0.23845  0.76195  1.0000
  C   C99       1.0  0.23067  0.27388  0.72560  1.0000
  C   C100      1.0  0.36645  0.13662  0.86526  1.0000
  Si  Si4       1.0  0.33151  0.17247  0.82896  1.0000
  Si  Si5       1.0  0.73609  0.26073  0.76376  1.0000
  C   C101      1.0  0.76959  0.22294  0.72850  1.0000
  C   C102      1.0  0.63843  0.36464  0.86616  1.0000
  Si  Si6       1.0  0.67184  0.32778  0.82982  1.0000
  Si  Si7       1.0  0.23416  0.76477  0.26588  1.0000
  C   C103      1.0  0.26770  0.72761  0.23007  1.0000
  C   C104      1.0  0.13774  0.86991  0.36860  1.0000
  Si  Si8       1.0  0.17093  0.83247  0.33262  1.0000
  Si  Si9       1.0  0.23735  0.23976  0.23828  1.0000
  C   C105      1.0  0.27251  0.27569  0.27478  1.0000
  C   C106      1.0  0.13561  0.13707  0.13492  1.0000
  Si  Si10      1.0  0.17060  0.17266  0.17201  1.0000
  Si  Si11      1.0  0.73720  0.73545  0.73615  1.0000
  C   C107      1.0  0.77370  0.77073  0.77190  1.0000
  C   C108      1.0  0.63186  0.63401  0.63545  1.0000
  Si  Si12      1.0  0.66939  0.66904  0.67049  1.0000
  Si  Si13      1.0  0.26159  0.76569  0.73806  1.0000
  C   C109      1.0  0.22633  0.73127  0.77514  1.0000
  C   C110      1.0  0.36367  0.86580  0.63527  1.0000
  Si  Si14      1.0  0.32748  0.83152  0.67158  1.0000
  Si  Si15      1.0  0.76243  0.25924  0.23942  1.0000
  C   C111      1.0  0.72745  0.22426  0.27624  1.0000
  C   C112      1.0  0.86335  0.36019  0.13679  1.0000
  Si  Si16      1.0  0.82812  0.32410  0.17233  1.0000
  Si  Si17      1.0  0.98602  0.01181  0.51371  1.0000
  C   C113      1.0  0.02126  0.97473  0.47945  1.0000
  C   C114      1.0  0.88471  0.11615  0.61224  1.0000
  Si  Si18      1.0  0.92047  0.07876  0.57889  1.0000
  Si  Si19      1.0  0.48665  0.51229  0.00987  1.0000
  C   C115      1.0  0.52145  0.47616  0.97410  1.0000
  C   C116      1.0  0.38887  0.61498  0.11392  1.0000
  Si  Si20      1.0  0.42319  0.57913  0.07748  1.0000
  Si  Si21      1.0  0.51187  0.98449  0.01233  1.0000
  C   C117      1.0  0.47640  0.01863  0.97478  1.0000
  C   C118      1.0  0.61218  0.88567  0.11886  1.0000
  Si  Si22      1.0  0.57715  0.91979  0.08105  1.0000
  Si  Si23      1.0  0.01381  0.49152  0.51345  1.0000
  C   C119      1.0  0.97929  0.52805  0.47741  1.0000
  C   C120      1.0  0.11312  0.38616  0.61485  1.0000
  Si  Si24      1.0  0.07866  0.42367  0.57979  1.0000
  Si  Si25      1.0  0.48907  0.48842  0.48382  1.0000
  C   C121      1.0  0.52642  0.52186  0.52052  1.0000
  C   C122      1.0  0.38434  0.38934  0.38045  1.0000
  Si  Si26      1.0  0.42140  0.42319  0.41716  1.0000
  Si  Si27      1.0  0.98808  0.98668  0.98904  1.0000
  C   C123      1.0  0.02351  0.02292  0.02494  1.0000
  C   C124      1.0  0.88672  0.88471  0.88519  1.0000
  Si  Si28      1.0  0.92256  0.92042  0.92125  1.0000
  Si  Si29      1.0  0.01624  0.51436  0.98602  1.0000
  C   C125      1.0  0.98198  0.47852  0.02275  1.0000
  C   C126      1.0  0.11511  0.61729  0.88322  1.0000
  Si  Si30      1.0  0.08117  0.58129  0.92005  1.0000
  Si  Si31      1.0  0.51402  0.01148  0.48582  1.0000
  C   C127      1.0  0.47902  0.97250  0.51843  1.0000
  C   C128      1.0  0.61585  0.11799  0.38943  1.0000
  Si  Si32      1.0  0.57969  0.07965  0.42151  1.0000
  C   C129      1.0  0.37433  0.00147  0.24869  1.0000
  C   C130      1.0  0.12478  0.00201  0.75169  1.0000
  C   C131      1.0  0.62628  0.49655  0.24704  1.0000
  C   C132      1.0  0.87462  0.49927  0.75000  1.0000
  C   C133      1.0  0.24992  0.37544  0.99976  1.0000
  C   C134      1.0  0.74978  0.12133  0.99991  1.0000
  C   C135      1.0  0.25242  0.62562  0.50049  1.0000
  C   C136      1.0  0.74904  0.87380  0.49938  1.0000
  C   C137      1.0  0.00135  0.25037  0.37643  1.0000
  C   C138      1.0  0.99925  0.74918  0.12670  1.0000
  C   C139      1.0  0.49962  0.25153  0.62296  1.0000
  C   C140      1.0  0.50063  0.74945  0.87286  1.0000
  C   C141      1.0  0.66074  0.58643  0.22627  1.0000
  C   C142      1.0  0.65844  0.54452  0.24604  1.0000
  C  Sn1       1.0  0.68680  0.53374  0.28125  1.0000
  C  Sn2       1.0  0.71800  0.56560  0.29689  1.0000
  C   C143      1.0  0.72002  0.60746  0.27691  1.0000
  C   C144      1.0  0.69149  0.61788  0.24169  1.0000
  H   H289      1.0  0.63866  0.59451  0.19903  1.0000
  O  Te1       1.0  0.68406  0.49170  0.30061  1.0000
  O  Te2       1.0  0.74672  0.55572  0.33204  1.0000
  H   H290      1.0  0.69326  0.65035  0.22641  1.0000
  Mg  Mg1       1.0  0.73031  0.49393  0.34757  1.0000
  C   C145      1.0  0.47842  0.16116  0.58902  1.0000
  C   C146      1.0  0.50172  0.20102  0.59461  1.0000
  C  Sn3       1.0  0.53612  0.21200  0.56590  1.0000
  C  Sn4       1.0  0.54731  0.18246  0.53098  1.0000
  C   C147      1.0  0.52377  0.14268  0.52565  1.0000
  C   C148      1.0  0.48942  0.13202  0.55458  1.0000
  H   H291      1.0  0.45182  0.15291  0.61139  1.0000
  O  Te3       1.0  0.55907  0.25195  0.57196  1.0000
  O  Te4       1.0  0.58153  0.19262  0.50180  1.0000
  H   H292      1.0  0.47136  0.10116  0.55023  1.0000
  Mg  Mg2       1.0  0.60310  0.25101  0.52363  1.0000
  C   C149      1.0  0.17829  0.10925  0.73354  1.0000
  C   C150      1.0  0.21027  0.11331  0.76712  1.0000
  C  Sn5       1.0  0.21683  0.07881  0.79743  1.0000
  C  Sn6       1.0  0.19085  0.03955  0.79398  1.0000
  C   C151      1.0  0.15896  0.03580  0.76025  1.0000
  C   C152      1.0  0.15266  0.07053  0.73011  1.0000
  H   H293      1.0  0.17342  0.13611  0.71020  1.0000
  O  Te5       1.0  0.24891  0.08342  0.83078  1.0000
  O  Te6       1.0  0.19673  0.00455  0.82382  1.0000
  H   H294      1.0  0.12792  0.06736  0.70410  1.0000
  Mg  Mg3       1.0  0.24459  0.02656  0.86354  1.0000
  C   C153      1.0  0.05067  0.71035  0.05530  1.0000
  C   C154      1.0  0.01609  0.71325  0.08563  1.0000
  C  Sn7       1.0  0.98648  0.67785  0.09050  1.0000
  C  Sn8       1.0  0.99169  0.63887  0.06447  1.0000
  C   C155      1.0  0.02642  0.63629  0.03425  1.0000
  C   C156      1.0  0.05585  0.67191  0.02964  1.0000
  H   H295      1.0  0.07346  0.73790  0.05175  1.0000
  O  Te7       1.0  0.95210  0.68130  0.12094  1.0000
  O  Te8       1.0  0.96259  0.60299  0.06868  1.0000
  H   H296      1.0  0.08264  0.66965  0.00617  1.0000
  Mg  Mg4       1.0  0.92093  0.62355  0.11467  1.0000
  C   C157      1.0  0.84053  0.40855  0.73053  1.0000
  C   C158      1.0  0.84320  0.45070  0.74999  1.0000
  C  Sn9       1.0  0.81552  0.46188  0.78518  1.0000
  C  Sn10      1.0  0.78463  0.43020  0.80111  1.0000
  C   C159      1.0  0.78223  0.38811  0.78144  1.0000
  C   C160      1.0  0.81008  0.37728  0.74624  1.0000
  H   H297      1.0  0.86209  0.40015  0.70331  1.0000
  O  Te9       1.0  0.81861  0.50415  0.80423  1.0000
  O  Te10      1.0  0.75658  0.44050  0.83624  1.0000
  H   H298      1.0  0.80802  0.34463  0.73119  1.0000
  Mg  Mg5       1.0  0.77327  0.50247  0.85130  1.0000
  C   C161      1.0  0.02093  0.83839  0.09104  1.0000
  C   C162      1.0  0.99702  0.79914  0.09765  1.0000
  C  Sn11      1.0  0.96197  0.78789  0.06920  1.0000
  C  Sn12      1.0  0.95072  0.81652  0.03349  1.0000
  C   C163      1.0  0.97485  0.85570  0.02714  1.0000
  C   C164      1.0  0.00986  0.86665  0.05582  1.0000
  H   H299      1.0  0.04803  0.84685  0.11321  1.0000
  O  Te11      1.0  0.93843  0.74855  0.07629  1.0000
  O  Te12      1.0  0.91585  0.80607  0.00455  1.0000
  H   H300      1.0  0.02838  0.89703  0.05068  1.0000
  Mg  Mg6       1.0  0.89363  0.74877  0.02789  1.0000
  C   C165      1.0  0.28590  0.94317  0.30304  1.0000
  C   C166      1.0  0.27812  0.90380  0.27945  1.0000
  C  Sn13      1.0  0.30490  0.89241  0.24362  1.0000
  C  Sn14      1.0  0.34009  0.92102  0.23127  1.0000
  C   C167      1.0  0.34762  0.96032  0.25510  1.0000
  C   C168      1.0  0.32061  0.97140  0.29089  1.0000
  H   H301      1.0  0.26502  0.95173  0.33075  1.0000
  O  Te13      1.0  0.29666  0.85296  0.22040  1.0000
  O  Te14      1.0  0.36737  0.91044  0.19560  1.0000
  H   H302      1.0  0.32163  0.00187  0.30917  1.0000
  Mg  Mg7       1.0  0.34292  0.85302  0.17423  1.0000
  C   C169      1.0  0.44642  0.30833  0.53187  1.0000
  C   C170      1.0  0.46451  0.35109  0.52978  1.0000
  C  Sn15      1.0  0.49901  0.36349  0.55844  1.0000
  C  Sn16      1.0  0.51565  0.33243  0.58973  1.0000
  C   C171      1.0  0.49735  0.28973  0.59153  1.0000
  C   C172      1.0  0.46282  0.27767  0.56270  1.0000
  H   H303      1.0  0.41972  0.29899  0.50954  1.0000
  O  Te15      1.0  0.51670  0.40635  0.55593  1.0000
  O  Te16      1.0  0.55012  0.34395  0.61876  1.0000
  H   H304      1.0  0.44884  0.24456  0.56430  1.0000
  Mg  Mg8       1.0  0.56331  0.40633  0.60256  1.0000
  C   C173      1.0  0.34162  0.09208  0.26855  1.0000
  C   C174      1.0  0.34340  0.04994  0.24904  1.0000
  C  Sn17      1.0  0.31450  0.03865  0.21430  1.0000
  C  Sn18      1.0  0.28328  0.07020  0.19888  1.0000
  C   C175      1.0  0.28178  0.11227  0.21860  1.0000
  C   C176      1.0  0.31084  0.12322  0.25334  1.0000
  H   H305      1.0  0.36412  0.10056  0.29542  1.0000
  O  Te17      1.0  0.32175  0.99640  0.19520  1.0000
  O  Te18      1.0  0.25401  0.05979  0.16420  1.0000
  H   H306      1.0  0.30947  0.15586  0.26842  1.0000
  Mg  Mg9       1.0  0.27488  0.99789  0.14887  1.0000
  C   C177      1.0  0.44923  0.69145  0.96315  1.0000
  C   C178      1.0  0.46833  0.64934  0.96579  1.0000
  C  Sn19      1.0  0.50288  0.63785  0.93756  1.0000
  C  Sn20      1.0  0.51853  0.66917  0.90614  1.0000
  C   C179      1.0  0.49922  0.71121  0.90378  1.0000
  C   C180      1.0  0.46466  0.72236  0.93218  1.0000
  H   H307      1.0  0.42250  0.70009  0.98514  1.0000
  O  Te19      1.0  0.52158  0.59563  0.94063  1.0000
  O  Te20      1.0  0.55303  0.65856  0.87753  1.0000
  H   H308      1.0  0.44989  0.75497  0.93014  1.0000
  Mg  Mg10      1.0  0.56780  0.59680  0.89443  1.0000
  C   C181      1.0  0.82029  0.60575  0.76706  1.0000
  C   C182      1.0  0.78889  0.60915  0.73292  1.0000
  C  Sn21      1.0  0.78252  0.57410  0.70297  1.0000
  C  Sn22      1.0  0.80811  0.53495  0.70737  1.0000
  C   C183      1.0  0.83942  0.53186  0.74166  1.0000
  C   C184      1.0  0.84553  0.56714  0.77143  1.0000
  H   H309      1.0  0.82501  0.63304  0.79011  1.0000
  O  Te21      1.0  0.75102  0.57806  0.66904  1.0000
  O  Te22      1.0  0.80241  0.49941  0.67791  1.0000
  H   H310      1.0  0.86983  0.56449  0.79788  1.0000
  Mg  Mg11      1.0  0.75539  0.52062  0.63712  1.0000
  C   C185      1.0  0.95195  0.19236  0.46816  1.0000
  C   C186      1.0  0.96987  0.14966  0.46933  1.0000
  C  Sn23      1.0  0.00328  0.13782  0.43989  1.0000
  C  Sn24      1.0  0.01899  0.16939  0.40874  1.0000
  C   C187      1.0  0.00087  0.21203  0.40786  1.0000
  C   C188      1.0  0.96743  0.22352  0.43747  1.0000
  H   H311      1.0  0.92609  0.20126  0.49108  1.0000
  O  Te23      1.0  0.02081  0.09502  0.44149  1.0000
  O  Te24      1.0  0.05238  0.15844  0.37895  1.0000
  H   H312      1.0  0.95359  0.25659  0.43658  1.0000
  Mg  Mg12      1.0  0.06578  0.09591  0.39404  1.0000
  C   C189      1.0  0.21341  0.94414  0.69796  1.0000
  C   C190      1.0  0.22072  0.90482  0.72148  1.0000
  C  Sn25      1.0  0.19338  0.89323  0.75684  1.0000
  C  Sn26      1.0  0.15807  0.92158  0.76879  1.0000
  C   C191      1.0  0.15101  0.96082  0.74503  1.0000
  C   C192      1.0  0.17858  0.97211  0.70972  1.0000
  H   H313      1.0  0.23472  0.95286  0.67062  1.0000
  O  Te25      1.0  0.20116  0.85383  0.77999  1.0000
  O  Te26      1.0  0.13023  0.91079  0.80398  1.0000
  H   H314      1.0  0.16786  0.00254  0.69150  1.0000
  Mg  Mg13      1.0  0.15420  0.85354  0.82545  1.0000
  C   C193      1.0  0.97983  0.34062  0.40976  1.0000
  C   C194      1.0  0.00345  0.30121  0.40447  1.0000
  C  Sn27      1.0  0.03810  0.29089  0.43358  1.0000
  C  Sn28      1.0  0.04923  0.32066  0.46862  1.0000
  C   C195      1.0  0.02538  0.35999  0.47365  1.0000
  C   C196      1.0  0.99077  0.36999  0.44432  1.0000
  H   H315      1.0  0.95303  0.34835  0.38708  1.0000
  O  Te27      1.0  0.06137  0.25138  0.42781  1.0000
  O  Te28      1.0  0.08370  0.31117  0.49821  1.0000
  H   H316      1.0  0.97247  0.40049  0.44844  1.0000
  Mg  Mg14      1.0  0.10566  0.25318  0.47666  1.0000
  C   C197      1.0  0.66027  0.40691  0.26845  1.0000
  C   C198      1.0  0.65752  0.44844  0.24793  1.0000
  C  Sn29      1.0  0.68523  0.45892  0.21252  1.0000
  C  Sn30      1.0  0.71623  0.42717  0.19743  1.0000
  C   C199      1.0  0.71869  0.38571  0.21816  1.0000
  C   C200      1.0  0.69082  0.37557  0.25358  1.0000
  H   H317      1.0  0.63869  0.39905  0.29584  1.0000
  O  Te29      1.0  0.68206  0.50057  0.19241  1.0000
  O  Te30      1.0  0.74431  0.43678  0.16209  1.0000
  H   H318      1.0  0.69293  0.34340  0.26943  1.0000
  Mg  Mg15      1.0  0.72748  0.49807  0.14547  1.0000
  C   C201      1.0  0.55272  0.80656  0.96452  1.0000
  C   C202      1.0  0.53277  0.84816  0.96829  1.0000
  C  Sn31      1.0  0.49755  0.85956  0.94030  1.0000
  C  Sn32      1.0  0.48210  0.82867  0.90796  1.0000
  C   C203      1.0  0.50226  0.78712  0.90446  1.0000
  C   C204      1.0  0.53748  0.77606  0.93264  1.0000
  H   H319      1.0  0.57995  0.79799  0.98633  1.0000
  O  Te31      1.0  0.47801  0.90128  0.94451  1.0000
  O  Te32      1.0  0.44695  0.83920  0.87956  1.0000
  H   H320      1.0  0.55290  0.74384  0.92972  1.0000
  Mg  Mg16      1.0  0.43113  0.90020  0.89816  1.0000
  C   C205      1.0  0.29855  0.70000  0.54226  1.0000
  C   C206      1.0  0.27010  0.66330  0.54028  1.0000
  C  Sn33      1.0  0.24054  0.65512  0.57476  1.0000
  C  Sn34      1.0  0.23950  0.68429  0.61186  1.0000
  C   C207      1.0  0.26807  0.72092  0.61351  1.0000
  C   C208      1.0  0.29753  0.72879  0.57883  1.0000
  H   H321      1.0  0.32133  0.70610  0.51542  1.0000
  O  Te33      1.0  0.21236  0.61830  0.57226  1.0000
  O  Te34      1.0  0.21026  0.67690  0.64677  1.0000
  H   H322      1.0  0.31953  0.75722  0.58036  1.0000
  Mg  Mg17      1.0  0.17840  0.62225  0.62811  1.0000
  C   C209      1.0  0.57374  0.48133  0.13853  1.0000
  C   C210      1.0  0.53826  0.51087  0.13786  1.0000
  C  Sn35      1.0  0.53172  0.54002  0.17339  1.0000
  C  Sn36      1.0  0.56131  0.53951  0.21022  1.0000
  C   C211      1.0  0.59672  0.50985  0.21057  1.0000
  C   C212      1.0  0.60295  0.48082  0.17485  1.0000
  H   H323      1.0  0.57857  0.45888  0.11089  1.0000
  O  Te35      1.0  0.49609  0.56930  0.17218  1.0000
  O  Te36      1.0  0.55555  0.56830  0.24617  1.0000
  H   H324      1.0  0.63044  0.45797  0.17536  1.0000
  Mg  Mg18      1.0  0.50209  0.60209  0.22910  1.0000
  C   C213      1.0  0.79659  0.19539  0.04134  1.0000
  C   C214      1.0  0.76720  0.15946  0.03919  1.0000
  C  Sn37      1.0  0.73828  0.15118  0.07420  1.0000
  C  Sn38      1.0  0.73887  0.17945  0.11201  1.0000
  C   C215      1.0  0.76837  0.21532  0.11383  1.0000
  C   C216      1.0  0.79718  0.22330  0.07862  1.0000
  H   H325      1.0  0.81886  0.20158  0.01409  1.0000
  O  Te37      1.0  0.70914  0.11513  0.07151  1.0000
  O  Te38      1.0  0.71031  0.17194  0.14746  1.0000
  H   H326      1.0  0.81991  0.25113  0.08029  1.0000
  Mg  Mg19      1.0  0.67665  0.11855  0.12828  1.0000
  C   C217      1.0  0.05191  0.05025  0.71075  1.0000
  C   C218      1.0  0.08343  0.01670  0.71489  1.0000
  C  Sn39      1.0  0.09485  0.98649  0.68023  1.0000
  C  Sn40      1.0  0.06918  0.99003  0.64072  1.0000
  C   C219      1.0  0.03273  0.02374  0.63688  1.0000
  C   C220      1.0  0.02659  0.05378  0.67178  1.0000
  H   H327      1.0  0.04718  0.07351  0.73773  1.0000
  O  Te39      1.0  0.12647  0.95316  0.68493  1.0000
  O  Te40      1.0  0.07490  0.96030  0.60555  1.0000
  H   H328      1.0  0.00221  0.07977  0.66855  1.0000
  Mg  Mg20      1.0  0.12208  0.92055  0.62777  1.0000
  C   C221      1.0  0.80188  0.78503  0.44008  1.0000
  C   C222      1.0  0.77813  0.77815  0.40060  1.0000
  C  Sn41      1.0  0.74275  0.80577  0.38952  1.0000
  C  Sn42      1.0  0.73103  0.84092  0.41856  1.0000
  C   C223      1.0  0.75502  0.84755  0.45797  1.0000
  C   C224      1.0  0.79034  0.81971  0.46874  1.0000
  H   H329      1.0  0.82923  0.76351  0.44841  1.0000
  O  Te41      1.0  0.71937  0.79841  0.34995  1.0000
  O  Te42      1.0  0.69583  0.86903  0.40830  1.0000
  H   H330      1.0  0.80875  0.82507  0.49930  1.0000
  Mg  Mg21      1.0  0.67400  0.84562  0.35055  1.0000
  C   C225      1.0  0.07411  0.01670  0.86029  1.0000
  C   C226      1.0  0.04385  0.98659  0.86125  1.0000
  C  Sn43      1.0  0.03674  0.95715  0.82589  1.0000
  C  Sn44      1.0  0.06555  0.95794  0.78894  1.0000
  C   C227      1.0  0.10078  0.98816  0.78831  1.0000
  C   C228      1.0  0.10256  0.01748  0.82386  1.0000
  H   H331      1.0  0.07940  0.03937  0.88780  1.0000
  O  Te43      1.0  0.00132  0.92730  0.82739  1.0000
  O  Te44      1.0  0.05922  0.92887  0.75317  1.0000
  H   H332      1.0  0.12990  0.04077  0.82312  1.0000
  Mg  Mg22      1.0  0.00631  0.89431  0.77061  1.0000
  C   C229      1.0  0.23158  0.34078  0.90910  1.0000
  C   C230      1.0  0.24968  0.34305  0.95195  1.0000
  C  Sn45      1.0  0.28390  0.31458  0.96444  1.0000
  C  Sn46      1.0  0.30025  0.28328  0.93338  1.0000
  C   C231      1.0  0.28195  0.28129  0.89059  1.0000
  C   C232      1.0  0.24770  0.30993  0.87844  1.0000
  H   H333      1.0  0.20510  0.36295  0.89970  1.0000
  O  Te45      1.0  0.29297  0.31497  0.00739  1.0000
  O  Te46      1.0  0.33445  0.25444  0.94499  1.0000
  H   H334      1.0  0.23372  0.30818  0.84526  1.0000
  Mg  Mg23      1.0  0.33914  0.26855  0.00747  1.0000
  C   C233      1.0  0.59176  0.51815  0.33647  1.0000
  C   C234      1.0  0.59785  0.49439  0.29704  1.0000
  C  Sn47      1.0  0.56932  0.45945  0.28568  1.0000
  C  Sn48      1.0  0.53406  0.44816  0.31438  1.0000
  C   C235      1.0  0.52823  0.47215  0.35373  1.0000
  C   C236      1.0  0.55698  0.50705  0.36479  1.0000
  H   H335      1.0  0.61399  0.54516  0.34501  1.0000
  O  Te47      1.0  0.57589  0.43605  0.24617  1.0000
  O  Te48      1.0  0.50505  0.41340  0.30382  1.0000
  H   H336      1.0  0.55224  0.52545  0.39530  1.0000
  Mg  Mg24      1.0  0.52760  0.39137  0.24629  1.0000
  C   C237      1.0  0.26630  0.32394  0.10806  1.0000
  C   C238      1.0  0.23245  0.29246  0.11188  1.0000
  C  Sn49      1.0  0.20289  0.28524  0.07664  1.0000
  C  Sn50      1.0  0.20739  0.31006  0.03687  1.0000
  C   C239      1.0  0.24138  0.34146  0.03336  1.0000
  C   C240      1.0  0.27077  0.34842  0.06884  1.0000
  H   H337      1.0  0.28905  0.32931  0.13550  1.0000
  O  Te49      1.0  0.16925  0.25367  0.08102  1.0000
  O  Te50      1.0  0.17832  0.30350  0.00112  1.0000
  H   H338      1.0  0.29699  0.37278  0.06586  1.0000
  Mg  Mg25      1.0  0.13781  0.25673  0.02309  1.0000
  C   C241      1.0  0.96525  0.44927  0.69184  1.0000
  C   C242      1.0  0.96745  0.46892  0.64986  1.0000
  C  Sn51      1.0  0.93865  0.50327  0.63842  1.0000
  C  Sn52      1.0  0.90710  0.51815  0.66966  1.0000
  C   C243      1.0  0.90518  0.49830  0.71158  1.0000
  C   C244      1.0  0.93416  0.46394  0.72267  1.0000
  H   H339      1.0  0.98768  0.42271  0.70043  1.0000
  O  Te51      1.0  0.94129  0.52252  0.59633  1.0000
  O  Te52      1.0  0.87793  0.55243  0.65910  1.0000
  H   H340      1.0  0.93246  0.44875  0.75518  1.0000
  Mg  Mg26      1.0  0.89438  0.56817  0.59753  1.0000
  C   C245      1.0  0.69497  0.78485  0.55781  1.0000
  C   C246      1.0  0.71856  0.77771  0.59727  1.0000
  C  Sn53      1.0  0.75412  0.80533  0.60879  1.0000
  C  Sn54      1.0  0.76621  0.84072  0.58020  1.0000
  C   C247      1.0  0.74239  0.84760  0.54081  1.0000
  C   C248      1.0  0.70687  0.81976  0.52960  1.0000
  H   H341      1.0  0.66747  0.76332  0.54914  1.0000
  O  Te53      1.0  0.77734  0.79772  0.64833  1.0000
  O  Te54      1.0  0.80161  0.86883  0.59091  1.0000
  H   H342      1.0  0.68859  0.82531  0.49906  1.0000
  Mg  Mg27      1.0  0.82309  0.84503  0.64843  1.0000
  C   C249      1.0  0.44494  0.95088  0.20811  1.0000
  C   C250      1.0  0.41452  0.98542  0.21203  1.0000
  C  Sn55      1.0  0.40359  0.01559  0.17727  1.0000
  C  Sn56      1.0  0.42864  0.01099  0.13790  1.0000
  C   C251      1.0  0.46400  0.97630  0.13429  1.0000
  C   C252      1.0  0.46965  0.94631  0.16928  1.0000
  H   H343      1.0  0.44930  0.92765  0.23518  1.0000
  O  Te55      1.0  0.37307  0.04992  0.18175  1.0000
  O  Te56      1.0  0.42339  0.04066  0.10264  1.0000
  H   H344      1.0  0.49318  0.91955  0.16622  1.0000
  Mg  Mg28      1.0  0.37773  0.08200  0.12454  1.0000
  C   C253      1.0  0.76899  0.15739  0.91032  1.0000
  C   C254      1.0  0.74986  0.15403  0.95230  1.0000
  C  Sn57      1.0  0.71504  0.18190  0.96404  1.0000
  C  Sn58      1.0  0.69914  0.21368  0.93309  1.0000
  C   C255      1.0  0.71848  0.21675  0.89117  1.0000
  C   C256      1.0  0.75332  0.18871  0.87977  1.0000
  H   H345      1.0  0.79592  0.13568  0.90150  1.0000
  O  Te57      1.0  0.68770  0.17581  0.00613  1.0000
  O  Te58      1.0  0.66438  0.24193  0.94395  1.0000
  H   H346      1.0  0.76810  0.19130  0.84726  1.0000
  Mg  Mg29      1.0  0.64106  0.22175  0.00540  1.0000
  C   C257      1.0  0.41157  0.98005  0.33764  1.0000
  C   C258      1.0  0.39919  0.00382  0.29844  1.0000
  C  Sn59      1.0  0.42731  0.03881  0.28687  1.0000
  C  Sn60      1.0  0.46344  0.05013  0.31514  1.0000
  C   C259      1.0  0.47053  0.02612  0.35427  1.0000
  C   C260      1.0  0.44720  0.99118  0.36553  1.0000
  H   H347      1.0  0.38965  0.95299  0.34635  1.0000
  O  Te59      1.0  0.41948  0.06223  0.24759  1.0000
  O  Te60      1.0  0.49207  0.08495  0.30437  1.0000
  H   H348      1.0  0.45292  0.97276  0.39587  1.0000
  Mg  Mg30      1.0  0.46770  0.10699  0.24729  1.0000
  C   C261      1.0  0.20448  0.70072  0.46345  1.0000
  C   C262      1.0  0.23383  0.66502  0.46331  1.0000
  C  Sn61      1.0  0.26223  0.65868  0.42751  1.0000
  C  Sn62      1.0  0.26116  0.68870  0.39121  1.0000
  C   C263      1.0  0.23169  0.72434  0.39168  1.0000
  C   C264      1.0  0.20341  0.73036  0.42767  1.0000
  H   H349      1.0  0.18261  0.70540  0.49130  1.0000
  O  Te61      1.0  0.29134  0.62283  0.42790  1.0000
  O  Te62      1.0  0.28919  0.68316  0.35501  1.0000
  H   H350      1.0  0.18071  0.75802  0.42778  1.0000
  Mg  Mg31      1.0  0.32302  0.62925  0.37091  1.0000
  C   C265      1.0  0.94653  0.55031  0.79042  1.0000
  C   C266      1.0  0.91584  0.51564  0.78654  1.0000
  C  Sn63      1.0  0.91063  0.48526  0.82118  1.0000
  C  Sn64      1.0  0.93667  0.48977  0.86040  1.0000
  C   C267      1.0  0.96727  0.52460  0.86397  1.0000
  C   C268      1.0  0.97222  0.55480  0.82910  1.0000
  H   H351      1.0  0.95035  0.57370  0.76345  1.0000
  O  Te63      1.0  0.87983  0.45080  0.81676  1.0000
  O  Te64      1.0  0.93213  0.45989  0.89553  1.0000
  H   H352      1.0  0.99597  0.58166  0.83212  1.0000
  Mg  Mg32      1.0  0.88572  0.41844  0.87375  1.0000
  C   C269      1.0  0.53996  0.29979  0.69698  1.0000
  C   C270      1.0  0.53865  0.27042  0.66094  1.0000
  C  Sn65      1.0  0.57369  0.24133  0.65357  1.0000
  C  Sn66      1.0  0.61067  0.24173  0.68289  1.0000
  C   C271      1.0  0.61164  0.27122  0.71887  1.0000
  C   C272      1.0  0.57641  0.30019  0.72593  1.0000
  H   H353      1.0  0.51269  0.32219  0.70246  1.0000
  O  Te65      1.0  0.57186  0.21221  0.61739  1.0000
  O  Te66      1.0  0.64613  0.21301  0.67631  1.0000
  H   H354      1.0  0.57741  0.32291  0.75386  1.0000
  Mg  Mg33      1.0  0.62829  0.17945  0.62233  1.0000
  C   C273      1.0  0.21292  0.55170  0.54804  1.0000
  C   C274      1.0  0.21630  0.58367  0.51461  1.0000
  C  Sn67      1.0  0.18045  0.59192  0.48628  1.0000
  C  Sn68      1.0  0.14053  0.56767  0.49162  1.0000
  C   C275      1.0  0.13747  0.53578  0.52520  1.0000
  C   C276      1.0  0.17355  0.52778  0.55334  1.0000
  H   H355      1.0  0.24082  0.54552  0.56984  1.0000
  O  Te67      1.0  0.18439  0.62397  0.45304  1.0000
  O  Te68      1.0  0.10419  0.57527  0.46379  1.0000
  H   H356      1.0  0.17092  0.50304  0.57925  1.0000
  Mg  Mg34      1.0  0.12571  0.62234  0.42338  1.0000
  C   C277      1.0  0.03723  0.79806  0.20157  1.0000
  C   C278      1.0  0.03657  0.76780  0.16626  1.0000
  C  Sn69      1.0  0.07165  0.73842  0.16038  1.0000
  C  Sn70      1.0  0.10801  0.73942  0.19046  1.0000
  C   C279      1.0  0.10834  0.76980  0.22570  1.0000
  C   C280      1.0  0.07307  0.79906  0.23127  1.0000
  H   H357      1.0  0.00994  0.82069  0.20590  1.0000
  O  Te69      1.0  0.07047  0.70841  0.12491  1.0000
  O  Te70      1.0  0.14349  0.71042  0.18536  1.0000
  H   H358      1.0  0.07358  0.82246  0.25863  1.0000
  Mg  Mg35      1.0  0.12666  0.67558  0.13187  1.0000
  C   C281      1.0  0.70921  0.04840  0.04835  1.0000
  C   C282      1.0  0.71351  0.07946  0.01417  1.0000
  C  Sn71      1.0  0.68730  0.08877  0.98426  1.0000
  C  Sn72      1.0  0.64747  0.06418  0.98872  1.0000
  C   C283      1.0  0.63486  0.03089  0.02304  1.0000
  C   C284      1.0  0.66993  0.02414  0.05279  1.0000
  H   H359      1.0  0.73632  0.04319  0.07138  1.0000
  O  Te71      1.0  0.69216  0.11993  0.95029  1.0000
  O  Te72      1.0  0.61213  0.07053  0.95929  1.0000
  H   H360      1.0  0.67161  0.00011  0.07926  1.0000
  Mg  Mg36      1.0  0.63467  0.11672  0.91844  1.0000
  C   C285      1.0  0.44051  0.80368  0.78488  1.0000
  C   C286      1.0  0.40122  0.77993  0.77806  1.0000
  C  Sn73      1.0  0.39068  0.74401  0.80541  1.0000
  C  Sn74      1.0  0.42008  0.73172  0.84020  1.0000
  C   C287      1.0  0.45929  0.75571  0.84677  1.0000
  C   C288      1.0  0.46952  0.79159  0.81920  1.0000
  H   H361      1.0  0.44841  0.83146  0.76356  1.0000
  O  Te73      1.0  0.35130  0.72063  0.79812  1.0000
  O  Te74      1.0  0.41036  0.69597  0.86804  1.0000
  H   H362      1.0  0.49993  0.80999  0.82451  1.0000
  Mg  Mg37      1.0  0.35268  0.67439  0.84486  1.0000
  C   C289      1.0  0.85851  0.07190  0.01620  1.0000
  C   C290      1.0  0.86882  0.03850  0.98649  1.0000
  C  Sn75      1.0  0.83392  0.03060  0.95677  1.0000
  C  Sn76      1.0  0.79667  0.05905  0.95686  1.0000
  C   C291      1.0  0.79530  0.09470  0.98669  1.0000
  C   C292      1.0  0.82179  0.09998  0.01630  1.0000
  H   H363      1.0  0.88568  0.07779  0.03909  1.0000
  O  Te75      1.0  0.84117  0.99477  0.92732  1.0000
  O  Te76      1.0  0.76133  0.05193  0.92750  1.0000
  H   H364      1.0  0.82048  0.12765  0.03928  1.0000
  Mg  Mg38      1.0  0.78477  0.99871  0.89370  1.0000
  C   C293      1.0  0.91067  0.22954  0.34378  1.0000
  C   C294      1.0  0.95276  0.24885  0.34509  1.0000
  C  Sn77      1.0  0.96374  0.28274  0.31544  1.0000
  C  Sn78      1.0  0.93192  0.29752  0.28394  1.0000
  C   C295      1.0  0.88990  0.27802  0.28292  1.0000
  C   C296      1.0  0.87926  0.24411  0.31274  1.0000
  H   H365      1.0  0.90243  0.20333  0.36686  1.0000
  O  Te77      1.0  0.00595  0.30165  0.31719  1.0000
  O  Te78      1.0  0.94202  0.33135  0.25394  1.0000
  H   H366      1.0  0.84666  0.22920  0.31173  1.0000
  Mg  Mg39      1.0  0.00397  0.34674  0.26935  1.0000
  C   C297      1.0  0.31010  0.53730  0.44529  1.0000
  C   C298      1.0  0.35284  0.53580  0.46317  1.0000
  C  Sn79      1.0  0.36495  0.56394  0.49827  1.0000
  C  Sn80      1.0  0.33363  0.59410  0.51572  1.0000
  C   C299      1.0  0.29094  0.59532  0.49762  1.0000
  C   C300      1.0  0.27918  0.56702  0.46250  1.0000
  H   H367      1.0  0.30099  0.51539  0.41814  1.0000
  O  Te79      1.0  0.40780  0.56203  0.51573  1.0000
  O  Te80      1.0  0.34485  0.62258  0.55080  1.0000
  H   H368      1.0  0.24607  0.56817  0.44868  1.0000
  Mg  Mg40      1.0  0.40733  0.60755  0.56338  1.0000
  C   C301      1.0  0.05947  0.19788  0.28671  1.0000
  C   C302      1.0  0.09914  0.22103  0.28090  1.0000
  C  Sn81      1.0  0.11085  0.25572  0.30969  1.0000
  C  Sn82      1.0  0.08225  0.26737  0.34493  1.0000
  C   C303      1.0  0.04265  0.24399  0.35048  1.0000
  C   C304      1.0  0.03125  0.20934  0.32147  1.0000
  H   H369      1.0  0.05066  0.17106  0.26429  1.0000
  O  Te81      1.0  0.15061  0.27850  0.30339  1.0000
  O  Te82      1.0  0.09316  0.30188  0.37419  1.0000
  H   H370      1.0  0.00055  0.19141  0.32600  1.0000
  Mg  Mg41      1.0  0.15092  0.32306  0.35196  1.0000
  C   C305      1.0  0.69197  0.96465  0.44706  1.0000
  C   C306      1.0  0.65009  0.96734  0.46608  1.0000
  C  Sn83      1.0  0.63850  0.93906  0.50090  1.0000
  C  Sn84      1.0  0.66947  0.90755  0.51692  1.0000
  C   C307      1.0  0.71128  0.90515  0.49770  1.0000
  C   C308      1.0  0.72254  0.93359  0.46286  1.0000
  H   H371      1.0  0.70069  0.98668  0.42012  1.0000
  O  Te83      1.0  0.59651  0.94218  0.51950  1.0000
  O  Te84      1.0  0.65874  0.87890  0.55170  1.0000
  H   H372      1.0  0.75497  0.93152  0.44816  1.0000
  Mg  Mg42      1.0  0.59741  0.89589  0.56620  1.0000
  C   C309      1.0  0.59019  0.76996  0.83903  1.0000
  C   C310      1.0  0.54827  0.75041  0.84106  1.0000
  C  Sn85      1.0  0.53696  0.71537  0.81255  1.0000
  C  Sn86      1.0  0.56827  0.69967  0.78147  1.0000
  C   C311      1.0  0.61013  0.71943  0.77972  1.0000
  C   C312      1.0  0.62109  0.75448  0.80839  1.0000
  H   H373      1.0  0.59868  0.79707  0.86123  1.0000
  O  Te85      1.0  0.49493  0.69623  0.81501  1.0000
  O  Te86      1.0  0.55784  0.66468  0.75259  1.0000
  H   H374      1.0  0.65356  0.76959  0.80683  1.0000
  Mg  Mg43      1.0  0.49630  0.64942  0.76865  1.0000
  C   C313      1.0  0.21055  0.44790  0.94952  1.0000
  C   C314      1.0  0.21411  0.41676  0.98375  1.0000
  C  Sn87      1.0  0.17081  0.40848  0.01353  1.0000
  C  Sn88      1.0  0.13188  0.43419  0.00888  1.0000
  C   C315      1.0  0.13725  0.46755  0.97451  1.0000
  C   C316      1.0  0.17216  0.47327  0.94490  1.0000
  H   H375      1.0  0.23755  0.45231  0.92659  1.0000
  O  Te87      1.0  0.17491  0.37724  0.04755  1.0000
  O  Te88      1.0  0.09671  0.42888  0.03818  1.0000
  H   H376      1.0  0.16939  0.49736  0.91839  1.0000
  Mg  Mg44      1.0  0.11800  0.38211  0.07917  1.0000
  C   C317      1.0  0.95850  0.70012  0.19903  1.0000
  C   C318      1.0  0.96024  0.73015  0.16371  1.0000
  C  Sn89      1.0  0.92569  0.75997  0.15650  1.0000
  C  Sn90      1.0  0.88877  0.75965  0.18524  1.0000
  C   C319      1.0  0.88736  0.72951  0.22050  1.0000
  C   C320      1.0  0.92210  0.69980  0.22741  1.0000
  H   H377      1.0  0.98540  0.67716  0.20440  1.0000
  O  Te89      1.0  0.92796  0.78974  0.12104  1.0000
  O  Te90      1.0  0.85379  0.78911  0.17880  1.0000
  H   H378      1.0  0.92076  0.67658  0.25478  1.0000
  Mg  Mg45      1.0  0.87211  0.82337  0.12589  1.0000
  C   C321      1.0  0.30905  0.46618  0.05112  1.0000
  C   C322      1.0  0.35071  0.46832  0.03155  1.0000
  C  Sn91      1.0  0.36993  0.44195  0.99669  1.0000
  C  Sn92      1.0  0.33815  0.41059  0.98119  1.0000
  C   C323      1.0  0.28793  0.40643  0.00098  1.0000
  C   C324      1.0  0.27768  0.43527  0.03585  1.0000
  H   H379      1.0  0.30110  0.48851  0.07809  1.0000
  O  Te91      1.0  0.41171  0.44452  0.97752  1.0000
  O  Te92      1.0  0.34787  0.38155  0.94639  1.0000
  H   H380      1.0  0.24541  0.43363  0.05098  1.0000
  Mg  Mg46      1.0  0.40933  0.39784  0.93101  1.0000
  C   C325      1.0  0.41030  0.27031  0.65819  1.0000
  C   C326      1.0  0.45239  0.25167  0.65543  1.0000
  C  Sn93      1.0  0.46489  0.21762  0.68436  1.0000
  C  Sn94      1.0  0.43462  0.20201  0.71659  1.0000
  C   C327      1.0  0.39258  0.22086  0.71905  1.0000
  C   C328      1.0  0.38042  0.25492  0.68996  1.0000
  H   H381      1.0  0.40088  0.29665  0.63566  1.0000
  O  Te93      1.0  0.50708  0.19937  0.68116  1.0000
  O  Te94      1.0  0.44625  0.16801  0.74589  1.0000
  H   H382      1.0  0.34782  0.26933  0.69208  1.0000
  Mg  Mg47      1.0  0.50753  0.15374  0.72851  1.0000
  C   C329      1.0  0.80804  0.96429  0.55168  1.0000
  C   C330      1.0  0.84962  0.96704  0.53201  1.0000
  C  Sn95      1.0  0.86038  0.93884  0.49681  1.0000
  C  Sn96      1.0  0.82886  0.90735  0.48108  1.0000
  C   C331      1.0  0.78733  0.90488  0.50097  1.0000
  C   C332      1.0  0.77692  0.93325  0.53618  1.0000
  H   H383      1.0  0.79996  0.98625  0.57891  1.0000
  O  Te95      1.0  0.90208  0.94202  0.47754  1.0000
  O  Te96      1.0  0.83874  0.87877  0.44594  1.0000
  H   H384      1.0  0.74471  0.93113  0.55139  1.0000
  Mg  Mg48      1.0  0.89999  0.89582  0.43055  1.0000
