data_image0
_chemical_formula_structural       BO2C2H6C2BOC3OC2H10C3BOC3OC2H10CBO2C2H6BO2C2H6BO2C2H6CBO2C2H6BO2C2H6C3BOC3OC2H10CBO2C2H6C3BOC3OC2H10CBO2C2H6CBO2C2H6C3BOC3OC2H10C2BOC3OC2H10CBO2C2H6BO2C2H6CBO2C2H6C3BOC3OC2H10C2BOC3OC2H10C3BOC3OC2H10BO2C2H6BO2C2H6C2BOC3OC2H10C3BOC3OC2H10CBO2C2H6C3BOC3OC2H10C3BOC3OC2H10C2BOC3OC2H10BO2C2H6CBO2C2H6BO2C2H6BO2C2H6C3BOC3OC2H10C2BOC3OC2H10C2BOC3OC2H10C3BOC3OC2H10C3BOC3OC2H10BO2C2H6C3BOC3OC2H10C2BOC3OC2H10CBO2C2H6C2BOC3OC2H10BO2C2H6BO2C2H6C2BOC3OC2H10C2BOC3OC2H10BO2C2H6CSiC2Si2C2Si2C2Si2C2Si2C2Si2C2Si2C2Si2C2Si2C2Si2C2Si2C2Si2C2Si2C2Si2C2Si2C2Si2C2SiC12SnCSn2CSnTe4Mg2SnCSn2CSnTe4Mg2SnCSn2CSnTe4Mg2SnCSn2CSnTe4Mg2SnCSn2CSnTe4Mg2SnCSn2CSnTe4Mg2SnCSn2CSnTe4Mg2SnCSn2CSnTe4Mg2SnCSn2CSnTe4Mg2SnCSn2CSnTe4Mg2SnCSn2CSnTe4Mg2SnCSn2CSnTe4Mg2SnCSn2CSnTe4Mg2SnCSn2CSnTe4Mg2SnCSn2CSnTe4Mg2SnCSn2CSnTe4Mg2SnCSn2CSnTe4Mg2SnCSn2CSnTe4Mg2SnCSn2CSnTe4Mg2SnCSn2CSnTe4Mg2SnCSn2CSnTe4Mg2SnCSn2CSnTe4Mg2SnCSn2CSnTe4Mg2SnCSn2CSnTe4Mg2
_chemical_formula_sum              "B48 O96 C332 H384 Si32 Sn96 Te96 Mg48"
_cell_length_a       30.2638
_cell_length_b       30.0914
_cell_length_c       30.082
_cell_angle_alpha    90.1298
_cell_angle_beta     90.4962
_cell_angle_gamma    90.2898

_symmetry_space_group_name_H-M    'P1'
_space_group_IT_number       1

loop_
  _space_group_symop_operation_xyz
  'x, y, z'

loop_
  _atom_site_type_symbol
  _atom_site_label
  _atom_site_symmetry_multiplicity
  _atom_site_fract_x
  _atom_site_fract_y
  _atom_site_fract_z
  _atom_site_occupancy
  B   B1        1.0  0.75164  0.64579  0.27976  1.0000
  O   O1        1.0  0.74967  0.68299  0.25272  1.0000
  O   O2        1.0  0.78157  0.64288  0.31469  1.0000
  C   C1        1.0  0.73594  0.75905  0.17570  1.0000
  C   C2        1.0  0.87312  0.59124  0.33939  1.0000
  H   H1        1.0  0.71501  0.77929  0.15362  1.0000
  H   H2        1.0  0.77056  0.76525  0.16680  1.0000
  H   H3        1.0  0.72849  0.72393  0.16876  1.0000
  H   H4        1.0  0.89394  0.56963  0.36025  1.0000
  H   H5        1.0  0.84310  0.57248  0.33045  1.0000
  H   H6        1.0  0.89123  0.59818  0.30867  1.0000
  C   C3        1.0  0.18723  0.11406  0.74079  1.0000
  C   C4        1.0  0.15604  0.04206  0.75994  1.0000
  B   B2        1.0  0.25405  0.14872  0.78173  1.0000
  O   O3        1.0  0.25207  0.18573  0.75451  1.0000
  C   C5        1.0  0.18845  0.03853  0.79364  1.0000
  C   C6        1.0  0.21953  0.11087  0.77446  1.0000
  C   C7        1.0  0.21933  0.07227  0.80089  1.0000
  O   O4        1.0  0.28580  0.14505  0.81492  1.0000
  C   C8        1.0  0.23729  0.25984  0.67674  1.0000
  C   C9        1.0  0.37767  0.09352  0.83997  1.0000
  H   H7        1.0  0.21657  0.28043  0.65477  1.0000
  H   H8        1.0  0.27178  0.26404  0.66638  1.0000
  H   H9        1.0  0.22791  0.22494  0.67120  1.0000
  H   H10       1.0  0.39848  0.07208  0.86103  1.0000
  H   H11       1.0  0.34779  0.07459  0.83093  1.0000
  H   H12       1.0  0.39595  0.10044  0.80934  1.0000
  H   H13       1.0  0.18967  0.00852  0.81371  1.0000
  H   H14       1.0  0.13193  0.08371  0.70681  1.0000
  H   H15       1.0  0.24404  0.06878  0.82715  1.0000
  H   H16       1.0  0.18680  0.14341  0.71970  1.0000
  C   C10       1.0  0.98335  0.67100  0.09345  1.0000
  C   C11       1.0  0.81398  0.38591  0.74100  1.0000
  C   C12       1.0  0.84393  0.45902  0.75865  1.0000
  B   B3        1.0  0.74972  0.35001  0.78340  1.0000
  O   O5        1.0  0.75241  0.31266  0.75658  1.0000
  C   C13       1.0  0.81235  0.46247  0.79262  1.0000
  C   C14       1.0  0.78274  0.38886  0.77515  1.0000
  C   C15       1.0  0.78258  0.42809  0.80083  1.0000
  O   O6        1.0  0.71871  0.35304  0.81687  1.0000
  C   C16       1.0  0.76346  0.23601  0.67928  1.0000
  C   C17       1.0  0.63097  0.40942  0.84244  1.0000
  H   H17       1.0  0.78333  0.21407  0.65807  1.0000
  H   H18       1.0  0.72882  0.23291  0.66844  1.0000
  H   H19       1.0  0.77419  0.27037  0.67318  1.0000
  H   H20       1.0  0.61069  0.43124  0.86336  1.0000
  H   H21       1.0  0.66231  0.42674  0.83606  1.0000
  H   H22       1.0  0.61362  0.40507  0.81049  1.0000
  H   H23       1.0  0.81100  0.49284  0.81226  1.0000
  H   H24       1.0  0.86737  0.41702  0.70573  1.0000
  H   H25       1.0  0.75850  0.43155  0.82728  1.0000
  H   H26       1.0  0.81447  0.35619  0.72032  1.0000
  C   C18       1.0  0.01710  0.82768  0.09605  1.0000
  B   B4        1.0  0.24639  0.85501  0.28276  1.0000
  O   O7        1.0  0.24785  0.81713  0.25652  1.0000
  O   O8        1.0  0.21607  0.85933  0.31670  1.0000
  C   C19       1.0  0.25848  0.73935  0.18095  1.0000
  C   C20       1.0  0.12614  0.91246  0.34256  1.0000
  H   H27       1.0  0.27851  0.71826  0.15908  1.0000
  H   H28       1.0  0.22359  0.73409  0.17192  1.0000
  H   H29       1.0  0.26684  0.77416  0.17379  1.0000
  H   H30       1.0  0.10633  0.93472  0.36349  1.0000
  H   H31       1.0  0.15595  0.93076  0.33265  1.0000
  H   H32       1.0  0.10675  0.90502  0.31239  1.0000
  B   B5        1.0  0.24885  0.14962  0.21746  1.0000
  O   O9        1.0  0.25239  0.18740  0.24363  1.0000
  O   O10       1.0  0.21624  0.14521  0.18518  1.0000
  C   C21       1.0  0.26640  0.26140  0.32359  1.0000
  C   C22       1.0  0.12553  0.09270  0.15844  1.0000
  H   H33       1.0  0.28746  0.28204  0.34549  1.0000
  H   H34       1.0  0.23206  0.26532  0.33442  1.0000
  H   H35       1.0  0.27573  0.22655  0.32877  1.0000
  H   H36       1.0  0.10497  0.07144  0.13664  1.0000
  H   H37       1.0  0.15589  0.07440  0.16636  1.0000
  H   H38       1.0  0.10744  0.09782  0.18952  1.0000
  B   B6        1.0  0.74646  0.64489  0.71675  1.0000
  O   O11       1.0  0.74999  0.68265  0.74309  1.0000
  O   O12       1.0  0.71454  0.64072  0.68357  1.0000
  C   C23       1.0  0.76607  0.75795  0.82092  1.0000
  C   C24       1.0  0.62211  0.59012  0.66000  1.0000
  H   H39       1.0  0.78739  0.77830  0.84283  1.0000
  H   H40       1.0  0.73165  0.76343  0.83075  1.0000
  H   H41       1.0  0.77394  0.72288  0.82709  1.0000
  H   H42       1.0  0.59941  0.56940  0.63989  1.0000
  H   H43       1.0  0.65234  0.57090  0.66592  1.0000
  H   H44       1.0  0.60640  0.59600  0.69225  1.0000
  C   C25       1.0  0.01868  0.17151  0.40676  1.0000
  B   B7        1.0  0.25236  0.85639  0.71880  1.0000
  O   O13       1.0  0.25009  0.81884  0.74533  1.0000
  O   O14       1.0  0.28339  0.86080  0.68545  1.0000
  C   C26       1.0  0.23576  0.74504  0.82377  1.0000
  C   C27       1.0  0.37747  0.90842  0.66052  1.0000
  H   H45       1.0  0.21532  0.72506  0.84638  1.0000
  H   H46       1.0  0.27055  0.73983  0.83301  1.0000
  H   H47       1.0  0.22803  0.78020  0.82959  1.0000
  H   H48       1.0  0.39910  0.92888  0.63948  1.0000
  H   H49       1.0  0.34876  0.92867  0.66941  1.0000
  H   H50       1.0  0.39579  0.90080  0.69123  1.0000
  B   B8        1.0  0.75127  0.34830  0.21726  1.0000
  O   O15       1.0  0.74967  0.31218  0.24566  1.0000
  O   O16       1.0  0.78158  0.35065  0.18315  1.0000
  C   C28       1.0  0.73621  0.23811  0.32497  1.0000
  C   C29       1.0  0.87150  0.40471  0.16121  1.0000
  H   H51       1.0  0.71577  0.21778  0.34729  1.0000
  H   H52       1.0  0.77095  0.23332  0.33461  1.0000
  H   H53       1.0  0.72794  0.27313  0.33080  1.0000
  H   H54       1.0  0.89257  0.42642  0.14085  1.0000
  H   H55       1.0  0.84049  0.42240  0.16742  1.0000
  H   H56       1.0  0.88835  0.39987  0.19332  1.0000
  C   C30       1.0  0.48232  0.82676  0.90583  1.0000
  C   C31       1.0  0.24032  0.68613  0.61336  1.0000
  C   C32       1.0  0.26034  0.65623  0.54118  1.0000
  B   B9        1.0  0.27946  0.75394  0.64861  1.0000
  O   O17       1.0  0.25233  0.75205  0.68547  1.0000
  C   C33       1.0  0.29302  0.68956  0.53824  1.0000
  C   C34       1.0  0.27290  0.71938  0.61069  1.0000
  C   C35       1.0  0.29933  0.72027  0.57237  1.0000
  O   O18       1.0  0.31235  0.78579  0.64480  1.0000
  C   C36       1.0  0.17726  0.73923  0.76354  1.0000
  C   C37       1.0  0.33791  0.87799  0.59256  1.0000
  H   H57       1.0  0.15615  0.71904  0.78536  1.0000
  H   H58       1.0  0.16806  0.77421  0.76808  1.0000
  H   H59       1.0  0.16952  0.72986  0.72902  1.0000
  H   H60       1.0  0.35895  0.89829  0.57078  1.0000
  H   H61       1.0  0.32769  0.84825  0.57379  1.0000
  H   H62       1.0  0.30815  0.89731  0.59994  1.0000
  H   H63       1.0  0.31286  0.69177  0.50833  1.0000
  H   H64       1.0  0.20809  0.63022  0.58213  1.0000
  H   H65       1.0  0.32470  0.74584  0.56941  1.0000
  H   H66       1.0  0.21924  0.68490  0.64248  1.0000
  C   C38       1.0  0.59426  0.47896  0.16866  1.0000
  B   B10       1.0  0.78183  0.24657  0.14983  1.0000
  O   O19       1.0  0.75474  0.24507  0.18679  1.0000
  O   O20       1.0  0.81632  0.27683  0.14657  1.0000
  C   C39       1.0  0.67834  0.23141  0.26430  1.0000
  C   C40       1.0  0.83928  0.36859  0.09219  1.0000
  H   H67       1.0  0.66859  0.26622  0.26895  1.0000
  H   H68       1.0  0.67099  0.22214  0.22967  1.0000
  H   H69       1.0  0.65738  0.21080  0.28586  1.0000
  H   H70       1.0  0.85951  0.39048  0.07117  1.0000
  H   H71       1.0  0.83342  0.33752  0.07377  1.0000
  H   H72       1.0  0.80724  0.38480  0.09703  1.0000
  C   C41       1.0  0.09288  0.98331  0.67349  1.0000
  C   C42       1.0  0.73845  0.81182  0.38686  1.0000
  C   C43       1.0  0.75686  0.84230  0.45959  1.0000
  B   B11       1.0  0.78081  0.74709  0.35145  1.0000
  O   O21       1.0  0.75428  0.74950  0.31374  1.0000
  C   C44       1.0  0.79039  0.81019  0.46341  1.0000
  C   C45       1.0  0.77233  0.78024  0.39006  1.0000
  C   C46       1.0  0.79813  0.78002  0.42928  1.0000
  O   O22       1.0  0.81456  0.71641  0.35526  1.0000
  C   C47       1.0  0.67804  0.76228  0.23569  1.0000
  C   C48       1.0  0.83640  0.62298  0.40744  1.0000
  H   H73       1.0  0.65667  0.78297  0.21445  1.0000
  H   H74       1.0  0.66885  0.72737  0.22990  1.0000
  H   H75       1.0  0.67070  0.77036  0.27048  1.0000
  H   H76       1.0  0.85632  0.60100  0.42879  1.0000
  H   H77       1.0  0.82869  0.65292  0.42677  1.0000
  H   H78       1.0  0.80519  0.60570  0.39980  1.0000
  H   H79       1.0  0.81016  0.80888  0.49377  1.0000
  H   H80       1.0  0.70398  0.86607  0.41751  1.0000
  H   H81       1.0  0.82436  0.75560  0.43281  1.0000
  H   H82       1.0  0.71769  0.81228  0.35712  1.0000
  C   C49       1.0  0.09405  0.01924  0.83011  1.0000
  B   B12       1.0  0.28508  0.24925  0.85254  1.0000
  O   O23       1.0  0.25893  0.25215  0.81462  1.0000
  O   O24       1.0  0.31868  0.21835  0.85665  1.0000
  C   C50       1.0  0.18189  0.26710  0.73863  1.0000
  C   C51       1.0  0.34056  0.12543  0.90781  1.0000
  H   H83       1.0  0.16052  0.28797  0.71758  1.0000
  H   H84       1.0  0.17128  0.23240  0.73416  1.0000
  H   H85       1.0  0.17611  0.27639  0.77343  1.0000
  H   H86       1.0  0.36065  0.10401  0.92958  1.0000
  H   H87       1.0  0.33229  0.15550  0.92668  1.0000
  H   H88       1.0  0.30964  0.10762  0.90017  1.0000
  C   C52       1.0  0.59662  0.51435  0.32571  1.0000
  B   B13       1.0  0.21661  0.25054  0.14831  1.0000
  O   O25       1.0  0.24323  0.25449  0.18580  1.0000
  O   O26       1.0  0.18336  0.21887  0.14504  1.0000
  C   C53       1.0  0.32129  0.27018  0.26144  1.0000
  C   C54       1.0  0.16116  0.12821  0.09162  1.0000
  H   H89       1.0  0.33250  0.23579  0.26583  1.0000
  H   H90       1.0  0.32670  0.27947  0.22661  1.0000
  H   H91       1.0  0.34245  0.29173  0.28235  1.0000
  H   H92       1.0  0.14120  0.10698  0.06925  1.0000
  H   H93       1.0  0.16857  0.15919  0.07386  1.0000
  H   H94       1.0  0.19252  0.11109  0.09810  1.0000
  C   C55       1.0  0.90509  0.51777  0.67175  1.0000
  C   C56       1.0  0.75844  0.81145  0.61146  1.0000
  C   C57       1.0  0.74056  0.84235  0.53899  1.0000
  B   B14       1.0  0.71640  0.74595  0.64603  1.0000
  O   O27       1.0  0.74346  0.74854  0.68331  1.0000
  C   C58       1.0  0.70671  0.81025  0.53483  1.0000
  C   C59       1.0  0.72443  0.77965  0.60780  1.0000
  C   C60       1.0  0.69865  0.77976  0.56856  1.0000
  O   O28       1.0  0.68306  0.71441  0.64256  1.0000
  C   C61       1.0  0.82228  0.76240  0.75936  1.0000
  C   C62       1.0  0.65423  0.62424  0.59062  1.0000
  H   H95       1.0  0.84426  0.78319  0.78016  1.0000
  H   H96       1.0  0.83163  0.72754  0.76450  1.0000
  H   H97       1.0  0.82860  0.77073  0.72444  1.0000
  H   H98       1.0  0.63220  0.60365  0.56965  1.0000
  H   H99       1.0  0.66149  0.65494  0.57234  1.0000
  H   H100      1.0  0.68535  0.60610  0.59511  1.0000
  H   H101      1.0  0.68706  0.80907  0.50439  1.0000
  H   H102      1.0  0.79345  0.86594  0.58154  1.0000
  H   H103      1.0  0.67223  0.75534  0.56456  1.0000
  H   H104      1.0  0.77917  0.81180  0.64123  1.0000
  C   C63       1.0  0.75854  0.18458  0.88836  1.0000
  C   C64       1.0  0.74127  0.15321  0.96054  1.0000
  B   B15       1.0  0.71632  0.24990  0.85372  1.0000
  O   O29       1.0  0.74303  0.24752  0.81663  1.0000
  C   C65       1.0  0.70767  0.18517  0.96468  1.0000
  C   C66       1.0  0.72470  0.21617  0.89194  1.0000
  C   C67       1.0  0.69941  0.21580  0.93105  1.0000
  O   O30       1.0  0.68307  0.28121  0.85706  1.0000
  C   C68       1.0  0.81868  0.22767  0.74211  1.0000
  C   C69       1.0  0.66356  0.37230  0.91038  1.0000
  H   H105      1.0  0.83896  0.20539  0.72168  1.0000
  H   H106      1.0  0.83087  0.26175  0.73725  1.0000
  H   H107      1.0  0.82419  0.21882  0.77712  1.0000
  H   H108      1.0  0.64432  0.39433  0.93207  1.0000
  H   H109      1.0  0.66901  0.34102  0.92829  1.0000
  H   H110      1.0  0.69590  0.38808  0.90510  1.0000
  H   H111      1.0  0.68826  0.18603  0.99495  1.0000
  H   H112      1.0  0.79355  0.13003  0.91818  1.0000
  H   H113      1.0  0.67317  0.24009  0.93497  1.0000
  H   H114      1.0  0.77890  0.18448  0.85870  1.0000
  C   C70       1.0  0.40637  0.98384  0.32698  1.0000
  B   B16       1.0  0.21789  0.75630  0.35686  1.0000
  O   O31       1.0  0.24335  0.75394  0.31889  1.0000
  O   O32       1.0  0.18526  0.78795  0.36162  1.0000
  C   C71       1.0  0.31707  0.73484  0.24117  1.0000
  C   C72       1.0  0.16516  0.88209  0.41043  1.0000
  H   H115      1.0  0.32738  0.76936  0.23523  1.0000
  H   H116      1.0  0.32457  0.72690  0.27605  1.0000
  H   H117      1.0  0.33745  0.71319  0.22017  1.0000
  H   H118      1.0  0.14580  0.90411  0.43203  1.0000
  H   H119      1.0  0.17402  0.85253  0.42984  1.0000
  H   H120      1.0  0.19583  0.89968  0.40196  1.0000
  B   B17       1.0  0.64662  0.28366  0.75181  1.0000
  O   O33       1.0  0.68333  0.25644  0.74987  1.0000
  O   O34       1.0  0.64309  0.31669  0.78376  1.0000
  C   C73       1.0  0.75386  0.17466  0.73574  1.0000
  C   C74       1.0  0.59358  0.34188  0.87513  1.0000
  H   H121      1.0  0.77343  0.15185  0.71517  1.0000
  H   H122      1.0  0.75779  0.16441  0.77057  1.0000
  H   H123      1.0  0.71894  0.17024  0.72638  1.0000
  H   H124      1.0  0.57361  0.36297  0.89708  1.0000
  H   H125      1.0  0.57466  0.33643  0.84426  1.0000
  H   H126      1.0  0.59775  0.30958  0.89154  1.0000
  C   C75       1.0  0.17366  0.59550  0.48357  1.0000
  B   B18       1.0  0.14405  0.78348  0.25726  1.0000
  O   O35       1.0  0.18118  0.75685  0.25448  1.0000
  O   O36       1.0  0.14083  0.81696  0.28875  1.0000
  C   C76       1.0  0.25443  0.67892  0.23919  1.0000
  C   C77       1.0  0.09512  0.84532  0.38227  1.0000
  H   H127      1.0  0.27352  0.65643  0.21784  1.0000
  H   H128      1.0  0.26097  0.66962  0.27392  1.0000
  H   H129      1.0  0.21920  0.67293  0.23225  1.0000
  H   H130      1.0  0.07528  0.86679  0.40397  1.0000
  H   H131      1.0  0.07465  0.83635  0.35327  1.0000
  H   H132      1.0  0.10249  0.81473  0.40071  1.0000
  C   C78       1.0  0.67189  0.08982  0.98128  1.0000
  C   C79       1.0  0.38808  0.73969  0.81154  1.0000
  C   C80       1.0  0.46083  0.75765  0.84150  1.0000
  B   B19       1.0  0.35182  0.78320  0.74759  1.0000
  O   O37       1.0  0.31426  0.75685  0.75017  1.0000
  C   C81       1.0  0.46410  0.79176  0.80970  1.0000
  C   C82       1.0  0.39074  0.77417  0.78027  1.0000
  C   C83       1.0  0.42971  0.79999  0.77991  1.0000
  O   O38       1.0  0.35522  0.81719  0.71689  1.0000
  C   C84       1.0  0.23772  0.68181  0.76835  1.0000
  C   C85       1.0  0.40508  0.83870  0.62329  1.0000
  H   H133      1.0  0.23164  0.67109  0.73390  1.0000
  H   H134      1.0  0.27248  0.67502  0.77653  1.0000
  H   H135      1.0  0.21712  0.66102  0.79009  1.0000
  H   H136      1.0  0.42678  0.85864  0.60185  1.0000
  H   H137      1.0  0.42420  0.82942  0.65302  1.0000
  H   H138      1.0  0.39646  0.80807  0.60520  1.0000
  H   H139      1.0  0.49421  0.81163  0.80840  1.0000
  H   H140      1.0  0.41946  0.70422  0.86507  1.0000
  H   H141      1.0  0.43281  0.82669  0.75574  1.0000
  H   H142      1.0  0.35852  0.71892  0.81216  1.0000
  C   C86       1.0  0.88786  0.23900  0.31684  1.0000
  C   C87       1.0  0.96118  0.25736  0.34516  1.0000
  B   B20       1.0  0.85197  0.27919  0.25035  1.0000
  O   O39       1.0  0.81492  0.25216  0.25291  1.0000
  C   C88       1.0  0.96447  0.28985  0.31169  1.0000
  C   C89       1.0  0.89068  0.27172  0.28374  1.0000
  C   C90       1.0  0.92986  0.29713  0.28190  1.0000
  O   O40       1.0  0.85508  0.31263  0.21894  1.0000
  C   C91       1.0  0.73994  0.17505  0.26955  1.0000
  C   C92       1.0  0.90777  0.33681  0.12845  1.0000
  H   H143      1.0  0.72004  0.15387  0.29157  1.0000
  H   H144      1.0  0.73386  0.16402  0.23520  1.0000
  H   H145      1.0  0.77492  0.16915  0.27750  1.0000
  H   H146      1.0  0.92888  0.35796  0.10756  1.0000
  H   H147      1.0  0.92573  0.33043  0.15965  1.0000
  H   H148      1.0  0.90313  0.30492  0.11115  1.0000
  H   H149      1.0  0.99482  0.30917  0.30901  1.0000
  H   H150      1.0  0.91922  0.20597  0.37196  1.0000
  H   H151      1.0  0.93301  0.32263  0.25649  1.0000
  H   H152      1.0  0.85811  0.21863  0.31873  1.0000
  C   C93       1.0  0.33151  0.59614  0.51557  1.0000
  C   C94       1.0  0.11352  0.25981  0.31593  1.0000
  C   C95       1.0  0.04081  0.24239  0.34509  1.0000
  B   B21       1.0  0.14760  0.21861  0.24954  1.0000
  O   O41       1.0  0.18505  0.24521  0.25242  1.0000
  C   C96       1.0  0.03653  0.20937  0.31202  1.0000
  C   C97       1.0  0.10967  0.22668  0.28313  1.0000
  C   C98       1.0  0.07027  0.20152  0.28191  1.0000
  O   O42       1.0  0.14313  0.18541  0.21775  1.0000
  C   C99       1.0  0.25842  0.32454  0.26876  1.0000
  C   C100      1.0  0.09218  0.16159  0.12414  1.0000
  H   H153      1.0  0.27827  0.34616  0.29085  1.0000
  H   H154      1.0  0.26340  0.33589  0.23448  1.0000
  H   H155      1.0  0.22348  0.32946  0.27697  1.0000
  H   H156      1.0  0.07158  0.14117  0.10159  1.0000
  H   H157      1.0  0.07293  0.16809  0.15423  1.0000
  H   H158      1.0  0.09833  0.19353  0.10765  1.0000
  H   H159      1.0  0.00600  0.19019  0.30979  1.0000
  H   H160      1.0  0.08380  0.29394  0.37091  1.0000
  H   H161      1.0  0.06620  0.17578  0.25670  1.0000
  H   H162      1.0  0.14343  0.28002  0.31738  1.0000
  B   B22       1.0  0.64747  0.71692  0.74747  1.0000
  O   O43       1.0  0.68514  0.74319  0.75016  1.0000
  O   O44       1.0  0.64301  0.68313  0.71640  1.0000
  C   C101      1.0  0.76209  0.82006  0.76456  1.0000
  C   C102      1.0  0.58842  0.65960  0.62750  1.0000
  H   H163      1.0  0.78325  0.84120  0.78588  1.0000
  H   H164      1.0  0.76732  0.83021  0.72993  1.0000
  H   H165      1.0  0.72755  0.82706  0.77292  1.0000
  H   H166      1.0  0.56583  0.63957  0.60661  1.0000
  H   H167      1.0  0.57151  0.66679  0.65885  1.0000
  H   H168      1.0  0.59419  0.69129  0.61040  1.0000
  B   B23       1.0  0.85184  0.71652  0.25190  1.0000
  O   O45       1.0  0.81494  0.74349  0.24942  1.0000
  O   O46       1.0  0.85519  0.68298  0.28317  1.0000
  C   C103      1.0  0.73846  0.82051  0.23312  1.0000
  C   C104      1.0  0.90522  0.65939  0.37711  1.0000
  H   H169      1.0  0.71791  0.84175  0.21160  1.0000
  H   H170      1.0  0.73236  0.83016  0.26776  1.0000
  H   H171      1.0  0.77323  0.82785  0.22580  1.0000
  H   H172      1.0  0.92574  0.63875  0.39923  1.0000
  H   H173      1.0  0.92479  0.66716  0.34752  1.0000
  H   H174      1.0  0.89853  0.69070  0.39457  1.0000
  C   C105      1.0  0.38883  0.26018  0.68568  1.0000
  C   C106      1.0  0.46077  0.24320  0.65499  1.0000
  B   B24       1.0  0.35564  0.21877  0.75209  1.0000
  O   O47       1.0  0.31860  0.24552  0.74962  1.0000
  C   C107      1.0  0.46576  0.21036  0.68794  1.0000
  C   C108      1.0  0.39328  0.22707  0.71825  1.0000
  C   C109      1.0  0.43264  0.20226  0.71871  1.0000
  O   O48       1.0  0.35942  0.18543  0.78355  1.0000
  C   C110      1.0  0.24398  0.32306  0.73192  1.0000
  C   C111      1.0  0.40931  0.16200  0.87746  1.0000
  H   H175      1.0  0.22313  0.34422  0.71063  1.0000
  H   H176      1.0  0.23970  0.33403  0.76647  1.0000
  H   H177      1.0  0.27858  0.32905  0.72284  1.0000
  H   H178      1.0  0.43019  0.14134  0.89921  1.0000
  H   H179      1.0  0.42860  0.17028  0.84781  1.0000
  H   H180      1.0  0.40242  0.19307  0.89529  1.0000
  H   H181      1.0  0.49631  0.19147  0.68948  1.0000
  H   H182      1.0  0.41748  0.29435  0.63007  1.0000
  H   H183      1.0  0.43715  0.17660  0.74378  1.0000
  H   H184      1.0  0.35893  0.28013  0.68495  1.0000
  C   C112      1.0  0.82684  0.90527  0.48144  1.0000
  C   C113      1.0  0.86073  0.93614  0.48914  1.0000
  C   C114      1.0  0.78891  0.90515  0.50780  1.0000
  B   B25       1.0  0.89620  0.00195  0.53129  1.0000
  O   O49       1.0  0.93330  0.99983  0.50465  1.0000
  C   C115      1.0  0.78577  0.93730  0.54173  1.0000
  C   C116      1.0  0.85803  0.96803  0.52317  1.0000
  C   C117      1.0  0.81966  0.96787  0.54939  1.0000
  O   O50       1.0  0.89259  0.03334  0.56476  1.0000
  C   C118      1.0  0.00995  0.98218  0.42991  1.0000
  C   C119      1.0  0.84355  0.12820  0.58423  1.0000
  H   H185      1.0  0.03035  0.96038  0.40908  1.0000
  H   H186      1.0  0.01634  0.01666  0.41979  1.0000
  H   H187      1.0  0.97512  0.97452  0.42252  1.0000
  H   H188      1.0  0.82201  0.15041  0.60339  1.0000
  H   H189      1.0  0.82413  0.09856  0.57514  1.0000
  H   H190      1.0  0.85252  0.14546  0.55344  1.0000
  H   H191      1.0  0.75603  0.93846  0.56177  1.0000
  H   H192      1.0  0.82987  0.88146  0.45447  1.0000
  H   H193      1.0  0.81656  0.99233  0.57589  1.0000
  H   H194      1.0  0.88986  0.93572  0.46816  1.0000
  C   C120      1.0  0.42250  0.73140  0.84159  1.0000
  B   B26       1.0  0.39755  0.50258  0.03031  1.0000
  O   O51       1.0  0.43376  0.50013  0.00245  1.0000
  O   O52       1.0  0.39509  0.53349  0.06437  1.0000
  C   C121      1.0  0.50946  0.48438  0.92486  1.0000
  C   C122      1.0  0.34466  0.62477  0.09006  1.0000
  H   H195      1.0  0.52965  0.46304  0.90337  1.0000
  H   H196      1.0  0.51555  0.51906  0.91523  1.0000
  H   H197      1.0  0.47457  0.47666  0.91783  1.0000
  H   H198      1.0  0.32440  0.64669  0.11089  1.0000
  H   H199      1.0  0.32563  0.59421  0.08366  1.0000
  H   H200      1.0  0.34974  0.64156  0.05810  1.0000
  C   C123      1.0  0.92242  0.23185  0.34707  1.0000
  C   C124      1.0  0.63768  0.05957  0.98918  1.0000
  C   C125      1.0  0.71042  0.08940  0.00735  1.0000
  B   B27       1.0  0.60180  0.99516  0.03213  1.0000
  O   O53       1.0  0.56447  0.99765  0.00513  1.0000
  C   C126      1.0  0.71412  0.05701  0.04088  1.0000
  C   C127      1.0  0.64069  0.02782  0.02323  1.0000
  C   C128      1.0  0.67988  0.02713  0.04887  1.0000
  O   O54       1.0  0.60508  0.96485  0.06656  1.0000
  C   C129      1.0  0.48783  0.00822  0.92598  1.0000
  C   C130      1.0  0.65550  0.87399  0.09489  1.0000
  H   H201      1.0  0.46721  0.02842  0.90354  1.0000
  H   H202      1.0  0.48177  0.97310  0.91779  1.0000
  H   H203      1.0  0.52257  0.01580  0.91874  1.0000
  H   H204      1.0  0.67644  0.85354  0.11679  1.0000
  H   H205      1.0  0.67440  0.90394  0.08619  1.0000
  H   H206      1.0  0.64931  0.85504  0.06420  1.0000
  H   H207      1.0  0.74440  0.05536  0.06057  1.0000
  H   H208      1.0  0.66858  0.11374  0.95449  1.0000
  H   H209      1.0  0.68333  0.00265  0.07526  1.0000
  H   H210      1.0  0.60803  0.06052  0.96847  1.0000
  C   C131      1.0  0.07979  0.26765  0.34638  1.0000
  C   C132      1.0  0.13941  0.56549  0.49204  1.0000
  C   C133      1.0  0.21308  0.59380  0.50815  1.0000
  B   B28       1.0  0.10418  0.50056  0.53413  1.0000
  O   O55       1.0  0.06646  0.50477  0.50827  1.0000
  C   C134      1.0  0.21765  0.56046  0.54063  1.0000
  C   C135      1.0  0.14328  0.53282  0.52510  1.0000
  C   C136      1.0  0.18336  0.53079  0.54915  1.0000
  O   O56       1.0  0.10743  0.46878  0.56716  1.0000
  C   C137      1.0  0.99291  0.52130  0.42854  1.0000
  C   C138      1.0  0.15588  0.37499  0.58966  1.0000
  H   H211      1.0  0.97262  0.54249  0.40675  1.0000
  H   H212      1.0  0.98821  0.48669  0.41773  1.0000
  H   H213      1.0  0.02771  0.53028  0.42331  1.0000
  H   H214      1.0  0.17630  0.35224  0.60968  1.0000
  H   H215      1.0  0.17569  0.40490  0.58305  1.0000
  H   H216      1.0  0.14883  0.35861  0.55769  1.0000
  H   H217      1.0  0.24862  0.55797  0.55909  1.0000
  H   H218      1.0  0.16964  0.62019  0.45759  1.0000
  H   H219      1.0  0.18740  0.50551  0.57468  1.0000
  H   H220      1.0  0.10897  0.56732  0.47261  1.0000
  C   C139      1.0  0.36569  0.56671  0.50589  1.0000
  C   C140      1.0  0.29211  0.59515  0.49087  1.0000
  B   B29       1.0  0.40045  0.50264  0.46233  1.0000
  O   O57       1.0  0.43790  0.50656  0.48884  1.0000
  C   C141      1.0  0.28775  0.56330  0.45668  1.0000
  C   C142      1.0  0.36183  0.53520  0.47150  1.0000
  C   C143      1.0  0.32193  0.53411  0.44705  1.0000
  O   O58       1.0  0.39712  0.47100  0.42888  1.0000
  C   C144      1.0  0.51115  0.51696  0.56909  1.0000
  C   C145      1.0  0.33892  0.38434  0.40289  1.0000
  H   H221      1.0  0.53274  0.53683  0.59120  1.0000
  H   H222      1.0  0.51264  0.48227  0.58030  1.0000
  H   H223      1.0  0.47714  0.52865  0.57346  1.0000
  H   H224      1.0  0.31691  0.36372  0.38193  1.0000
  H   H225      1.0  0.32294  0.41668  0.40763  1.0000
  H   H226      1.0  0.34167  0.36822  0.43552  1.0000
  H   H227      1.0  0.25691  0.56138  0.43789  1.0000
  H   H228      1.0  0.33549  0.61970  0.54275  1.0000
  H   H229      1.0  0.31780  0.50982  0.42044  1.0000
  H   H230      1.0  0.39602  0.56791  0.52559  1.0000
  B   B30       1.0  0.89851  0.99730  0.96788  1.0000
  O   O59       1.0  0.93553  0.00007  0.99523  1.0000
  O   O60       1.0  0.89526  0.96636  0.93378  1.0000
  C   C146      1.0  0.01085  0.01577  0.07398  1.0000
  C   C147      1.0  0.84330  0.87491  0.90992  1.0000
  H   H231      1.0  0.03159  0.03698  0.09564  1.0000
  H   H232      1.0  0.01572  0.98112  0.08426  1.0000
  H   H233      1.0  0.97616  0.02436  0.07998  1.0000
  H   H234      1.0  0.82144  0.85422  0.88888  1.0000
  H   H235      1.0  0.82546  0.90554  0.91797  1.0000
  H   H236      1.0  0.84929  0.85683  0.94106  1.0000
  C   C148      1.0  0.42190  0.26822  0.65453  1.0000
  B   B31       1.0  0.10576  0.50449  0.96638  1.0000
  O   O61       1.0  0.06891  0.50208  0.99325  1.0000
  O   O62       1.0  0.10938  0.53595  0.93307  1.0000
  C   C149      1.0  0.99501  0.48784  0.07162  1.0000
  C   C150      1.0  0.15876  0.62918  0.90738  1.0000
  H   H237      1.0  0.97512  0.46684  0.09382  1.0000
  H   H238      1.0  0.98925  0.52266  0.08084  1.0000
  H   H239      1.0  0.02999  0.48046  0.07813  1.0000
  H   H240      1.0  0.17919  0.65045  0.88595  1.0000
  H   H241      1.0  0.17798  0.59933  0.91537  1.0000
  H   H242      1.0  0.15297  0.64733  0.93849  1.0000
  B   B32       1.0  0.60369  0.00207  0.46659  1.0000
  O   O63       1.0  0.56678  0.99974  0.49341  1.0000
  O   O64       1.0  0.60725  0.03360  0.43331  1.0000
  C   C151      1.0  0.49073  0.97751  0.56822  1.0000
  C   C152      1.0  0.65718  0.12935  0.41771  1.0000
  H   H243      1.0  0.47031  0.95462  0.58796  1.0000
  H   H244      1.0  0.48460  0.01141  0.58022  1.0000
  H   H245      1.0  0.52555  0.96966  0.57497  1.0000
  H   H246      1.0  0.67893  0.15199  0.39915  1.0000
  H   H247      1.0  0.67630  0.09951  0.42596  1.0000
  H   H248      1.0  0.64844  0.14591  0.44898  1.0000
  B   B33       1.0  0.00417  0.53343  0.89619  1.0000
  O   O65       1.0  0.00211  0.50648  0.93341  1.0000
  O   O66       1.0  0.03541  0.56701  0.89280  1.0000
  C   C153      1.0  0.99063  0.42931  0.01137  1.0000
  C   C154      1.0  0.12501  0.59186  0.83985  1.0000
  H   H249      1.0  0.97055  0.40772  0.03283  1.0000
  H   H250      1.0  0.02546  0.42047  0.01658  1.0000
  H   H251      1.0  0.98186  0.42157  0.97669  1.0000
  H   H252      1.0  0.14496  0.61292  0.81777  1.0000
  H   H253      1.0  0.09458  0.58273  0.82182  1.0000
  H   H254      1.0  0.14367  0.56129  0.84624  1.0000
  C   C155      1.0  0.73072  0.84234  0.42097  1.0000
  C   C156      1.0  0.43766  0.99156  0.36061  1.0000
  C   C157      1.0  0.40634  0.00956  0.28826  1.0000
  B   B34       1.0  0.50404  0.03336  0.39500  1.0000
  O   O67       1.0  0.50191  0.00675  0.43248  1.0000
  C   C158      1.0  0.43908  0.04269  0.28393  1.0000
  C   C159      1.0  0.46997  0.02501  0.35687  1.0000
  C   C160      1.0  0.47001  0.05042  0.31758  1.0000
  O   O68       1.0  0.53549  0.06675  0.39096  1.0000
  C   C161      1.0  0.48814  0.92453  0.50286  1.0000
  C   C162      1.0  0.62967  0.09493  0.34588  1.0000
  H   H255      1.0  0.46785  0.90101  0.52200  1.0000
  H   H256      1.0  0.52295  0.91542  0.50776  1.0000
  H   H257      1.0  0.47989  0.91991  0.46751  1.0000
  H   H258      1.0  0.65139  0.11715  0.32678  1.0000
  H   H259      1.0  0.60095  0.08670  0.32480  1.0000
  H   H260      1.0  0.64788  0.06410  0.35234  1.0000
  H   H261      1.0  0.44037  0.06201  0.25343  1.0000
  H   H262      1.0  0.38218  0.95737  0.33086  1.0000
  H   H263      1.0  0.49491  0.07630  0.31351  1.0000
  H   H264      1.0  0.43722  0.97107  0.39038  1.0000
  C   C163      1.0  0.06180  0.99040  0.63963  1.0000
  C   C164      1.0  0.09307  0.00972  0.71189  1.0000
  B   B35       1.0  0.99574  0.03149  0.60462  1.0000
  O   O69       1.0  0.99780  0.00482  0.56701  1.0000
  C   C165      1.0  0.06073  0.04300  0.71560  1.0000
  C   C166      1.0  0.02976  0.02384  0.64286  1.0000
  C   C167      1.0  0.02991  0.05004  0.68176  1.0000
  O   O70       1.0  0.96441  0.06464  0.60893  1.0000
  C   C168      1.0  0.01198  0.92593  0.49212  1.0000
  C   C169      1.0  0.87059  0.09204  0.65507  1.0000
  H   H265      1.0  0.03251  0.90367  0.47192  1.0000
  H   H266      1.0  0.97723  0.91675  0.48620  1.0000
  H   H267      1.0  0.01974  0.91950  0.52725  1.0000
  H   H268      1.0  0.84893  0.11373  0.67470  1.0000
  H   H269      1.0  0.89919  0.08344  0.67601  1.0000
  H   H270      1.0  0.85220  0.06130  0.64768  1.0000
  H   H271      1.0  0.05960  0.06301  0.74575  1.0000
  H   H272      1.0  0.11682  0.95678  0.67003  1.0000
  H   H273      1.0  0.00523  0.07596  0.68537  1.0000
  H   H274      1.0  0.06213  0.96938  0.61014  1.0000
  C   C170      1.0  0.56350  0.48723  0.13480  1.0000
  C   C171      1.0  0.59466  0.50476  0.20742  1.0000
  B   B36       1.0  0.49879  0.53067  0.10031  1.0000
  O   O71       1.0  0.50008  0.50435  0.06255  1.0000
  C   C172      1.0  0.56291  0.53853  0.21170  1.0000
  C   C173      1.0  0.53223  0.52134  0.13850  1.0000
  C   C174      1.0  0.53251  0.54680  0.17786  1.0000
  O   O72       1.0  0.46876  0.56493  0.10473  1.0000
  C   C175      1.0  0.51248  0.42712  0.98612  1.0000
  C   C176      1.0  0.38025  0.59033  0.15797  1.0000
  H   H275      1.0  0.53318  0.40519  0.96573  1.0000
  H   H276      1.0  0.47781  0.41785  0.97997  1.0000
  H   H277      1.0  0.52014  0.42029  0.02120  1.0000
  H   H278      1.0  0.35936  0.61083  0.17959  1.0000
  H   H279      1.0  0.41114  0.58352  0.17608  1.0000
  H   H280      1.0  0.36309  0.55852  0.15244  1.0000
  H   H281      1.0  0.56215  0.55804  0.24219  1.0000
  H   H282      1.0  0.61779  0.45210  0.16491  1.0000
  H   H283      1.0  0.50831  0.57316  0.18168  1.0000
  H   H284      1.0  0.56356  0.46676  0.10490  1.0000
  C   C177      1.0  0.76650  0.84223  0.57775  1.0000
  C   C178      1.0  0.56638  0.50664  0.35969  1.0000
  C   C179      1.0  0.59535  0.48867  0.28687  1.0000
  B   B37       1.0  0.50063  0.46598  0.39445  1.0000
  O   O73       1.0  0.50443  0.49321  0.43148  1.0000
  C   C180      1.0  0.56257  0.45547  0.28282  1.0000
  C   C181      1.0  0.53386  0.47333  0.35609  1.0000
  C   C182      1.0  0.53260  0.44781  0.31679  1.0000
  O   O74       1.0  0.46849  0.43313  0.39100  1.0000
  C   C183      1.0  0.52419  0.57109  0.50643  1.0000
  C   C184      1.0  0.37894  0.41313  0.33536  1.0000
  H   H285      1.0  0.54625  0.59123  0.52780  1.0000
  H   H286      1.0  0.49062  0.58440  0.50955  1.0000
  H   H287      1.0  0.53465  0.57574  0.47187  1.0000
  H   H288      1.0  0.35676  0.39370  0.31346  1.0000
  H   H289      1.0  0.41071  0.41689  0.31837  1.0000
  H   H290      1.0  0.36455  0.44634  0.33926  1.0000
  H   H291      1.0  0.56049  0.43602  0.25233  1.0000
  H   H292      1.0  0.62097  0.54077  0.32939  1.0000
  H   H293      1.0  0.50750  0.42200  0.31297  1.0000
  H   H294      1.0  0.56772  0.52706  0.38958  1.0000
  C   C185      1.0  0.76682  0.15366  0.92197  1.0000
  C   C186      1.0  0.06399  0.01065  0.86409  1.0000
  C   C187      1.0  0.09391  0.99326  0.79142  1.0000
  B   B38       1.0  0.99966  0.96716  0.89894  1.0000
  O   O75       1.0  0.00230  0.99352  0.93665  1.0000
  C   C188      1.0  0.06221  0.95899  0.78750  1.0000
  C   C189      1.0  0.03270  0.97614  0.86069  1.0000
  C   C190      1.0  0.03245  0.95045  0.82146  1.0000
  O   O76       1.0  0.96864  0.93333  0.89482  1.0000
  C   C191      1.0  0.01615  0.07189  0.01177  1.0000
  C   C192      1.0  0.87659  0.90946  0.84144  1.0000
  H   H295      1.0  0.03711  0.09372  0.03259  1.0000
  H   H296      1.0  0.98165  0.08199  0.01637  1.0000
  H   H297      1.0  0.02479  0.07794  0.97690  1.0000
  H   H298      1.0  0.85510  0.88871  0.82007  1.0000
  H   H299      1.0  0.90681  0.91685  0.82284  1.0000
  H   H300      1.0  0.85941  0.94094  0.84743  1.0000
  H   H301      1.0  0.06079  0.93933  0.75711  1.0000
  H   H302      1.0  0.11740  0.04658  0.83369  1.0000
  H   H303      1.0  0.00833  0.92371  0.81776  1.0000
  H   H304      1.0  0.06454  0.03131  0.89386  1.0000
  B   B39       1.0  0.50036  0.96767  0.10242  1.0000
  O   O77       1.0  0.49793  0.99366  0.06455  1.0000
  O   O78       1.0  0.53158  0.93455  0.10723  1.0000
  C   C193      1.0  0.48489  0.06830  0.98472  1.0000
  C   C194      1.0  0.62269  0.91290  0.16122  1.0000
  H   H305      1.0  0.46370  0.08894  0.96323  1.0000
  H   H306      1.0  0.51939  0.07774  0.97846  1.0000
  H   H307      1.0  0.47739  0.07671  0.01939  1.0000
  H   H308      1.0  0.64367  0.89326  0.18381  1.0000
  H   H309      1.0  0.59258  0.92181  0.17923  1.0000
  H   H310      1.0  0.64056  0.94376  0.15350  1.0000
  C   C195      1.0  0.23407  0.65505  0.57926  1.0000
  C   C196      1.0  0.93581  0.51088  0.63802  1.0000
  C   C197      1.0  0.90564  0.49152  0.71014  1.0000
  B   B40       1.0  0.00200  0.47055  0.60328  1.0000
  O   O79       1.0  0.99958  0.49752  0.56604  1.0000
  C   C198      1.0  0.93830  0.45851  0.71388  1.0000
  C   C199      1.0  0.96822  0.47774  0.64130  1.0000
  C   C200      1.0  0.96873  0.45164  0.68016  1.0000
  O   O80       1.0  0.03353  0.43756  0.60723  1.0000
  C   C201      1.0  0.98672  0.57698  0.49107  1.0000
  C   C202      1.0  0.12465  0.40954  0.65917  1.0000
  H   H311      1.0  0.96635  0.59880  0.46999  1.0000
  H   H312      1.0  0.02140  0.58710  0.48710  1.0000
  H   H313      1.0  0.97756  0.58297  0.52582  1.0000
  H   H314      1.0  0.14507  0.38750  0.67999  1.0000
  H   H315      1.0  0.09488  0.41783  0.67803  1.0000
  H   H316      1.0  0.14344  0.44038  0.65390  1.0000
  H   H317      1.0  0.94005  0.43865  0.74403  1.0000
  H   H318      1.0  0.88088  0.54409  0.66825  1.0000
  H   H319      1.0  0.99368  0.42596  0.68390  1.0000
  H   H320      1.0  0.93490  0.53186  0.60860  1.0000
  C   C203      1.0  0.48986  0.85997  0.93755  1.0000
  C   C204      1.0  0.50890  0.78885  0.90489  1.0000
  B   B41       1.0  0.53152  0.89417  0.00392  1.0000
  O   O81       1.0  0.50446  0.93112  0.00172  1.0000
  C   C205      1.0  0.54286  0.78492  0.93697  1.0000
  C   C206      1.0  0.52390  0.85649  0.96938  1.0000
  C   C207      1.0  0.55034  0.81813  0.96839  1.0000
  O   O82       1.0  0.56458  0.89058  0.03580  1.0000
  C   C208      1.0  0.42752  0.00697  0.98359  1.0000
  C   C209      1.0  0.58705  0.84274  0.13111  1.0000
  H   H321      1.0  0.40592  0.02650  0.96149  1.0000
  H   H322      1.0  0.41831  0.01445  0.01803  1.0000
  H   H323      1.0  0.42051  0.97164  0.97734  1.0000
  H   H324      1.0  0.60742  0.82250  0.15374  1.0000
  H   H325      1.0  0.57937  0.82248  0.10160  1.0000
  H   H326      1.0  0.55586  0.84995  0.14803  1.0000
  H   H327      1.0  0.56299  0.75506  0.93738  1.0000
  H   H328      1.0  0.45535  0.83027  0.88205  1.0000
  H   H329      1.0  0.57674  0.81448  0.99293  1.0000
  H   H330      1.0  0.46873  0.88915  0.93802  1.0000
  C   C210      1.0  0.84403  0.42030  0.73276  1.0000
  B   B42       1.0  0.03214  0.40133  0.50117  1.0000
  O   O83       1.0  0.00660  0.43929  0.49770  1.0000
  O   O84       1.0  0.06468  0.39720  0.53347  1.0000
  C   C211      1.0  0.93028  0.51513  0.48323  1.0000
  C   C212      1.0  0.08670  0.34315  0.62382  1.0000
  H   H331      1.0  0.90932  0.53606  0.46181  1.0000
  H   H332      1.0  0.91948  0.51976  0.51769  1.0000
  H   H333      1.0  0.92408  0.48030  0.47397  1.0000
  H   H334      1.0  0.10649  0.32056  0.64464  1.0000
  H   H335      1.0  0.07832  0.32553  0.59284  1.0000
  H   H336      1.0  0.05580  0.34994  0.64142  1.0000
  C   C213      1.0  0.99222  0.63787  0.06219  1.0000
  C   C214      1.0  0.00879  0.70997  0.09497  1.0000
  B   B43       1.0  0.03543  0.60478  0.99702  1.0000
  O   O85       1.0  0.00883  0.56720  0.99842  1.0000
  C   C215      1.0  0.04305  0.71490  0.06391  1.0000
  C   C216      1.0  0.02657  0.64236  0.03133  1.0000
  C   C217      1.0  0.05187  0.68177  0.03293  1.0000
  O   O86       1.0  0.06889  0.60914  0.96609  1.0000
  C   C218      1.0  0.93271  0.48937  0.01523  1.0000
  C   C219      1.0  0.08889  0.65988  0.87253  1.0000
  H   H337      1.0  0.91220  0.46864  0.03712  1.0000
  H   H338      1.0  0.92227  0.48280  0.98077  1.0000
  H   H339      1.0  0.92552  0.52432  0.02278  1.0000
  H   H340      1.0  0.10921  0.68248  0.85236  1.0000
  H   H341      1.0  0.07945  0.67782  0.90281  1.0000
  H   H342      1.0  0.05860  0.65234  0.85353  1.0000
  H   H343      1.0  0.06246  0.74545  0.06394  1.0000
  H   H344      1.0  0.95623  0.66656  0.11649  1.0000
  H   H345      1.0  0.07851  0.68631  0.00924  1.0000
  H   H346      1.0  0.97189  0.60792  0.06138  1.0000
  B   B44       1.0  0.53113  0.10102  0.49901  1.0000
  O   O87       1.0  0.50502  0.06315  0.50223  1.0000
  O   O88       1.0  0.56455  0.10469  0.46801  1.0000
  C   C220      1.0  0.42991  0.98385  0.51055  1.0000
  C   C221      1.0  0.58995  0.16079  0.37884  1.0000
  H   H347      1.0  0.40891  0.96102  0.52976  1.0000
  H   H348      1.0  0.42046  0.98051  0.47535  1.0000
  H   H349      1.0  0.42232  0.01790  0.52115  1.0000
  H   H350      1.0  0.61082  0.18376  0.35968  1.0000
  H   H351      1.0  0.57984  0.17812  0.40925  1.0000
  H   H352      1.0  0.56010  0.15378  0.35897  1.0000
  B   B45       1.0  0.46441  0.39840  0.49547  1.0000
  O   O89       1.0  0.49133  0.43561  0.49821  1.0000
  O   O90       1.0  0.43102  0.39516  0.46378  1.0000
  C   C222      1.0  0.57408  0.50460  0.51588  1.0000
  C   C223      1.0  0.40511  0.34314  0.37344  1.0000
  H   H353      1.0  0.59652  0.52398  0.53755  1.0000
  H   H354      1.0  0.58599  0.50767  0.48162  1.0000
  H   H355      1.0  0.57671  0.46954  0.52562  1.0000
  H   H356      1.0  0.38373  0.32292  0.35144  1.0000
  H   H357      1.0  0.40898  0.32517  0.40495  1.0000
  H   H358      1.0  0.43774  0.34552  0.35787  1.0000
  C   C224      1.0  0.00950  0.86163  0.06535  1.0000
  C   C225      1.0  0.99123  0.78899  0.09533  1.0000
  B   B46       1.0  0.96831  0.89661  0.99925  1.0000
  O   O91       1.0  0.99515  0.93397  0.00253  1.0000
  C   C226      1.0  0.95801  0.78501  0.06245  1.0000
  C   C227      1.0  0.97606  0.85817  0.03281  1.0000
  C   C228      1.0  0.95042  0.81895  0.03203  1.0000
  O   O92       1.0  0.93530  0.89294  0.96721  1.0000
  C   C229      1.0  0.07234  0.01039  0.01782  1.0000
  C   C230      1.0  0.91083  0.84081  0.87518  1.0000
  H   H359      1.0  0.09379  0.03157  0.03880  1.0000
  H   H360      1.0  0.08225  0.01513  0.98310  1.0000
  H   H361      1.0  0.07876  0.97563  0.02673  1.0000
  H   H362      1.0  0.88988  0.81957  0.85376  1.0000
  H   H363      1.0  0.91815  0.82219  0.90571  1.0000
  H   H364      1.0  0.94210  0.84654  0.85779  1.0000
  H   H365      1.0  0.93842  0.75462  0.06071  1.0000
  H   H366      1.0  0.04354  0.83128  0.12046  1.0000
  H   H367      1.0  0.92448  0.81517  0.00698  1.0000
  H   H368      1.0  0.03009  0.89139  0.06642  1.0000
  C   C231      1.0  0.01087  0.13724  0.43704  1.0000
  C   C232      1.0  0.99397  0.21071  0.40821  1.0000
  B   B47       1.0  0.96935  0.10187  0.50260  1.0000
  O   O93       1.0  0.99542  0.06423  0.49996  1.0000
  C   C233      1.0  0.96178  0.21482  0.44150  1.0000
  C   C234      1.0  0.97822  0.14074  0.46979  1.0000
  C   C235      1.0  0.95388  0.18051  0.47139  1.0000
  O   O94       1.0  0.93574  0.10527  0.53336  1.0000
  C   C236      1.0  0.07025  0.98627  0.48852  1.0000
  C   C237      1.0  0.91106  0.15866  0.62413  1.0000
  H   H369      1.0  0.09157  0.96491  0.46820  1.0000
  H   H370      1.0  0.07931  0.98107  0.52356  1.0000
  H   H371      1.0  0.07780  0.02098  0.48016  1.0000
  H   H372      1.0  0.89041  0.18117  0.64390  1.0000
  H   H373      1.0  0.92144  0.17670  0.59425  1.0000
  H   H374      1.0  0.94079  0.15114  0.64387  1.0000
  H   H375      1.0  0.94310  0.24552  0.44390  1.0000
  H   H376      1.0  0.04438  0.16769  0.38207  1.0000
  H   H377      1.0  0.92863  0.18435  0.49665  1.0000
  H   H378      1.0  0.03057  0.10711  0.43537  1.0000
  B   B48       1.0  0.46883  0.60256  0.00018  1.0000
  O   O95       1.0  0.49519  0.56507  0.99759  1.0000
  O   O96       1.0  0.43578  0.60670  0.03154  1.0000
  C   C238      1.0  0.57054  0.48774  0.98272  1.0000
  C   C239      1.0  0.41387  0.65887  0.12329  1.0000
  H   H379      1.0  0.57789  0.52258  0.97469  1.0000
  H   H380      1.0  0.59176  0.46674  0.96190  1.0000
  H   H381      1.0  0.58003  0.48217  0.01759  1.0000
  H   H382      1.0  0.39402  0.68016  0.14514  1.0000
  H   H383      1.0  0.42021  0.67741  0.09257  1.0000
  H   H384      1.0  0.44575  0.65311  0.13997  1.0000
  C   C240      1.0  0.15603  0.08033  0.73354  1.0000
  Si  Si1       1.0  0.76228  0.73590  0.26113  1.0000
  C   C241      1.0  0.72700  0.77118  0.22466  1.0000
  C   C242      1.0  0.86220  0.63430  0.36490  1.0000
  Si  Si2       1.0  0.82736  0.67015  0.32854  1.0000
  Si  Si3       1.0  0.26599  0.23845  0.76195  1.0000
  C   C243      1.0  0.23067  0.27388  0.72560  1.0000
  C   C244      1.0  0.36645  0.13662  0.86526  1.0000
  Si  Si4       1.0  0.33151  0.17247  0.82896  1.0000
  Si  Si5       1.0  0.73609  0.26073  0.76376  1.0000
  C   C245      1.0  0.76959  0.22294  0.72850  1.0000
  C   C246      1.0  0.63843  0.36464  0.86616  1.0000
  Si  Si6       1.0  0.67184  0.32778  0.82982  1.0000
  Si  Si7       1.0  0.23416  0.76477  0.26588  1.0000
  C   C247      1.0  0.26770  0.72761  0.23007  1.0000
  C   C248      1.0  0.13774  0.86991  0.36860  1.0000
  Si  Si8       1.0  0.17093  0.83247  0.33262  1.0000
  Si  Si9       1.0  0.23735  0.23976  0.23828  1.0000
  C   C249      1.0  0.27251  0.27569  0.27478  1.0000
  C   C250      1.0  0.13561  0.13707  0.13492  1.0000
  Si  Si10      1.0  0.17060  0.17266  0.17201  1.0000
  Si  Si11      1.0  0.73720  0.73545  0.73615  1.0000
  C   C251      1.0  0.77370  0.77073  0.77190  1.0000
  C   C252      1.0  0.63186  0.63401  0.63545  1.0000
  Si  Si12      1.0  0.66939  0.66904  0.67049  1.0000
  Si  Si13      1.0  0.26159  0.76569  0.73806  1.0000
  C   C253      1.0  0.22633  0.73127  0.77514  1.0000
  C   C254      1.0  0.36367  0.86580  0.63527  1.0000
  Si  Si14      1.0  0.32748  0.83152  0.67158  1.0000
  Si  Si15      1.0  0.76243  0.25924  0.23942  1.0000
  C   C255      1.0  0.72745  0.22426  0.27624  1.0000
  C   C256      1.0  0.86335  0.36019  0.13679  1.0000
  Si  Si16      1.0  0.82812  0.32410  0.17233  1.0000
  Si  Si17      1.0  0.98602  0.01181  0.51371  1.0000
  C   C257      1.0  0.02126  0.97473  0.47945  1.0000
  C   C258      1.0  0.88471  0.11615  0.61224  1.0000
  Si  Si18      1.0  0.92047  0.07876  0.57889  1.0000
  Si  Si19      1.0  0.48665  0.51229  0.00987  1.0000
  C   C259      1.0  0.52145  0.47616  0.97410  1.0000
  C   C260      1.0  0.38887  0.61498  0.11392  1.0000
  Si  Si20      1.0  0.42319  0.57913  0.07748  1.0000
  Si  Si21      1.0  0.51187  0.98449  0.01233  1.0000
  C   C261      1.0  0.47640  0.01863  0.97478  1.0000
  C   C262      1.0  0.61218  0.88567  0.11886  1.0000
  Si  Si22      1.0  0.57715  0.91979  0.08105  1.0000
  Si  Si23      1.0  0.01381  0.49152  0.51345  1.0000
  C   C263      1.0  0.97929  0.52805  0.47741  1.0000
  C   C264      1.0  0.11312  0.38616  0.61485  1.0000
  Si  Si24      1.0  0.07866  0.42367  0.57979  1.0000
  Si  Si25      1.0  0.48907  0.48842  0.48382  1.0000
  C   C265      1.0  0.52642  0.52186  0.52052  1.0000
  C   C266      1.0  0.38434  0.38934  0.38045  1.0000
  Si  Si26      1.0  0.42140  0.42319  0.41716  1.0000
  Si  Si27      1.0  0.98808  0.98668  0.98904  1.0000
  C   C267      1.0  0.02351  0.02292  0.02494  1.0000
  C   C268      1.0  0.88672  0.88471  0.88519  1.0000
  Si  Si28      1.0  0.92256  0.92042  0.92125  1.0000
  Si  Si29      1.0  0.01624  0.51436  0.98602  1.0000
  C   C269      1.0  0.98198  0.47852  0.02275  1.0000
  C   C270      1.0  0.11511  0.61729  0.88322  1.0000
  Si  Si30      1.0  0.08117  0.58129  0.92005  1.0000
  Si  Si31      1.0  0.51402  0.01148  0.48582  1.0000
  C   C271      1.0  0.47902  0.97250  0.51843  1.0000
  C   C272      1.0  0.61585  0.11799  0.38943  1.0000
  Si  Si32      1.0  0.57969  0.07965  0.42151  1.0000
  C   C273      1.0  0.37433  0.00147  0.24869  1.0000
  C   C274      1.0  0.12478  0.00201  0.75169  1.0000
  C   C275      1.0  0.62628  0.49655  0.24704  1.0000
  C   C276      1.0  0.87462  0.49927  0.75000  1.0000
  C   C277      1.0  0.24992  0.37544  0.99976  1.0000
  C   C278      1.0  0.74978  0.12133  0.99991  1.0000
  C   C279      1.0  0.25242  0.62562  0.50049  1.0000
  C   C280      1.0  0.74904  0.87380  0.49938  1.0000
  C   C281      1.0  0.00135  0.25037  0.37643  1.0000
  C   C282      1.0  0.99925  0.74918  0.12670  1.0000
  C   C283      1.0  0.49962  0.25153  0.62296  1.0000
  C   C284      1.0  0.50063  0.74945  0.87286  1.0000
  C  Sn1       1.0  0.97833  0.35362  0.43576  1.0000
  C   C285      1.0  0.01028  0.35676  0.46945  1.0000
  C  Sn2       1.0  0.04594  0.32747  0.47048  1.0000
  C  Sn3       1.0  0.04976  0.29437  0.43711  1.0000
  C   C286      1.0  0.01783  0.29125  0.40344  1.0000
  C  Sn4       1.0  0.98215  0.32052  0.40239  1.0000
  O  Te1       1.0  0.94296  0.38325  0.43538  1.0000
  O  Te2       1.0  0.07746  0.33126  0.50451  1.0000
  O  Te3       1.0  0.08516  0.26473  0.43751  1.0000
  O  Te4       1.0  0.95065  0.31675  0.36838  1.0000
  Mg  Mg1       1.0  0.11964  0.28318  0.49070  1.0000
  Mg  Mg2       1.0  0.90847  0.36482  0.38215  1.0000
  C  Sn5       1.0  0.78681  0.04210  0.96225  1.0000
  C   C287      1.0  0.78484  0.07596  0.99403  1.0000
  C  Sn6       1.0  0.81464  0.08845  0.01560  1.0000
  C  Sn7       1.0  0.85588  0.06903  0.00517  1.0000
  C   C288      1.0  0.86646  0.03751  0.97339  1.0000
  C  Sn8       1.0  0.82806  0.02267  0.95181  1.0000
  O  Te5       1.0  0.74799  0.02782  0.94110  1.0000
  O  Te6       1.0  0.81184  0.12234  0.04727  1.0000
  O  Te7       1.0  0.89472  0.08334  0.02635  1.0000
  O  Te8       1.0  0.83587  0.98882  0.92016  1.0000
  Mg  Mg3       1.0  0.87393  0.13044  0.06705  1.0000
  Mg  Mg4       1.0  0.77381  0.98071  0.90034  1.0000
  C  Sn9       1.0  0.33102  0.11459  0.25375  1.0000
  C   C289      1.0  0.29636  0.11597  0.22279  1.0000
  C  Sn10      1.0  0.28159  0.07707  0.20191  1.0000
  C  Sn11      1.0  0.30187  0.03592  0.21221  1.0000
  C   C290      1.0  0.33649  0.03455  0.24316  1.0000
  C  Sn12      1.0  0.35129  0.07344  0.26405  1.0000
  O  Te9       1.0  0.34525  0.15389  0.27423  1.0000
  O  Te10      1.0  0.24690  0.07928  0.17106  1.0000
  O  Te11      1.0  0.29264  0.99660  0.19170  1.0000
  O  Te12      1.0  0.38596  0.07124  0.29489  1.0000
  Mg  Mg5       1.0  0.23923  0.01668  0.15199  1.0000
  Mg  Mg6       1.0  0.39364  0.13381  0.31399  1.0000
  C  Sn13      1.0  0.55714  0.18401  0.54309  1.0000
  C   C291      1.0  0.53507  0.14321  0.53992  1.0000
  C  Sn14      1.0  0.49437  0.13704  0.56063  1.0000
  C  Sn15      1.0  0.47532  0.17239  0.58500  1.0000
  C   C292      1.0  0.49738  0.21317  0.58815  1.0000
  C  Sn16      1.0  0.53809  0.21937  0.56745  1.0000
  O  Te13      1.0  0.59779  0.18943  0.52211  1.0000
  O  Te14      1.0  0.47293  0.09594  0.55701  1.0000
  O  Te15      1.0  0.43463  0.16694  0.60598  1.0000
  O  Te16      1.0  0.55952  0.26044  0.57105  1.0000
  Mg  Mg7       1.0  0.41820  0.10480  0.59143  1.0000
  Mg  Mg8       1.0  0.61424  0.25162  0.53663  1.0000
  C  Sn17      1.0  0.40193  0.01109  0.15591  1.0000
  C   C293      1.0  0.40298  0.98943  0.19674  1.0000
  C  Sn18      1.0  0.43691  0.96221  0.21249  1.0000
  C  Sn19      1.0  0.47564  0.95655  0.18692  1.0000
  C   C294      1.0  0.47961  0.97821  0.14612  1.0000
  C  Sn20      1.0  0.44066  0.00543  0.13034  1.0000
  O  Te17      1.0  0.36760  0.03814  0.14082  1.0000
  O  Te18      1.0  0.43217  0.94089  0.25339  1.0000
  O  Te19      1.0  0.50998  0.92947  0.20205  1.0000
  O  Te20      1.0  0.44540  0.02675  0.08947  1.0000
  Mg  Mg9       1.0  0.48805  0.90748  0.25980  1.0000
  Mg  Mg10      1.0  0.38955  0.06018  0.08304  1.0000
  C  Sn21      1.0  0.54728  0.69515  0.81043  1.0000
  C   C295      1.0  0.54489  0.72825  0.84297  1.0000
  C  Sn22      1.0  0.57413  0.76431  0.84245  1.0000
  C  Sn23      1.0  0.60642  0.76736  0.80869  1.0000
  C   C296      1.0  0.60880  0.73428  0.77618  1.0000
  C  Sn24      1.0  0.57958  0.69820  0.77668  1.0000
  O  Te21      1.0  0.51772  0.65939  0.81160  1.0000
  O  Te22      1.0  0.57110  0.79699  0.87534  1.0000
  O  Te23      1.0  0.63600  0.80316  0.80755  1.0000
  O  Te24      1.0  0.58259  0.66554  0.74381  1.0000
  Mg  Mg11      1.0  0.61875  0.83928  0.85960  1.0000
  Mg  Mg12      1.0  0.53494  0.62325  0.75950  1.0000
  C  Sn25      1.0  0.72208  0.43984  0.20548  1.0000
  C   C297      1.0  0.72512  0.39912  0.22751  1.0000
  C  Sn26      1.0  0.69074  0.38441  0.25454  1.0000
  C  Sn27      1.0  0.65250  0.41095  0.25963  1.0000
  C   C298      1.0  0.64948  0.45164  0.23760  1.0000
  C  Sn28      1.0  0.68385  0.46637  0.21057  1.0000
  O  Te25      1.0  0.75686  0.45388  0.17863  1.0000
  O  Te26      1.0  0.69454  0.34359  0.27624  1.0000
  O  Te27      1.0  0.61772  0.39687  0.28651  1.0000
  O  Te28      1.0  0.68006  0.50717  0.18887  1.0000
  Mg  Mg13      1.0  0.63836  0.33880  0.30918  1.0000
  Mg  Mg14      1.0  0.73620  0.51198  0.15591  1.0000
  C  Sn29      1.0  0.32714  0.88944  0.24373  1.0000
  C   C299      1.0  0.29362  0.88859  0.27539  1.0000
  C  Sn30      1.0  0.28067  0.92769  0.29661  1.0000
  C  Sn31      1.0  0.30163  0.96851  0.28595  1.0000
  C   C300      1.0  0.33512  0.96936  0.25430  1.0000
  C  Sn32      1.0  0.34810  0.93027  0.23307  1.0000
  O  Te29      1.0  0.33956  0.84995  0.22294  1.0000
  O  Te30      1.0  0.24709  0.92600  0.32815  1.0000
  O  Te31      1.0  0.28415  0.00802  0.30678  1.0000
  O  Te32      1.0  0.38165  0.93195  0.20154  1.0000
  Mg  Mg15      1.0  0.24178  0.98868  0.34743  1.0000
  Mg  Mg16      1.0  0.38697  0.86929  0.18222  1.0000
  C  Sn33      1.0  0.15801  0.40440  0.00864  1.0000
  C   C301      1.0  0.20718  0.40242  0.98721  1.0000
  C  Sn34      1.0  0.22329  0.43675  0.96060  1.0000
  C  Sn35      1.0  0.19837  0.47621  0.95533  1.0000
  C   C302      1.0  0.15785  0.48049  0.97676  1.0000
  C  Sn36      1.0  0.13309  0.44386  0.00336  1.0000
  O  Te33      1.0  0.14254  0.36965  0.03508  1.0000
  O  Te34      1.0  0.26391  0.43169  0.93950  1.0000
  O  Te35      1.0  0.21387  0.51097  0.92886  1.0000
  O  Te36      1.0  0.09250  0.44891  0.02446  1.0000
  Mg  Mg17      1.0  0.27102  0.48836  0.90696  1.0000
  Mg  Mg18      1.0  0.08537  0.39227  0.05703  1.0000
  C  Sn37      1.0  0.94305  0.70616  0.22267  1.0000
  C   C303      1.0  0.90244  0.72781  0.22571  1.0000
  C  Sn38      1.0  0.88749  0.75483  0.19106  1.0000
  C  Sn39      1.0  0.91366  0.76029  0.15255  1.0000
  C   C304      1.0  0.95424  0.73864  0.14952  1.0000
  C  Sn40      1.0  0.96922  0.71163  0.18416  1.0000
  O  Te37      1.0  0.95734  0.67932  0.25771  1.0000
  O  Te38      1.0  0.84679  0.77614  0.19487  1.0000
  O  Te39      1.0  0.89933  0.78716  0.11750  1.0000
  O  Te40      1.0  0.00989  0.69031  0.18037  1.0000
  Mg  Mg19      1.0  0.84156  0.80923  0.13827  1.0000
  Mg  Mg20      1.0  0.01514  0.65720  0.23693  1.0000
  C  Sn41      1.0  0.21032  0.72481  0.44843  1.0000
  C   C305      1.0  0.23054  0.72898  0.40705  1.0000
  C  Sn42      1.0  0.25632  0.69453  0.39024  1.0000
  C  Sn43      1.0  0.26199  0.65508  0.41531  1.0000
  C   C306      1.0  0.24177  0.65091  0.45666  1.0000
  C  Sn44      1.0  0.21599  0.68535  0.47350  1.0000
  O  Te41      1.0  0.18469  0.75966  0.46458  1.0000
  O  Te42      1.0  0.27621  0.69948  0.34879  1.0000
  O  Te43      1.0  0.28764  0.62021  0.39912  1.0000
  O  Te44      1.0  0.19610  0.68041  0.51491  1.0000
  Mg  Mg21      1.0  0.30799  0.64269  0.34096  1.0000
  Mg  Mg22      1.0  0.16430  0.73717  0.52277  1.0000
  C  Sn45      1.0  0.95496  0.56007  0.81617  1.0000
  C   C307      1.0  0.96119  0.53694  0.85595  1.0000
  C  Sn46      1.0  0.94228  0.49493  0.86170  1.0000
  C  Sn47      1.0  0.91663  0.47561  0.82696  1.0000
  C   C308      1.0  0.91041  0.49873  0.78721  1.0000
  C  Sn48      1.0  0.92930  0.54075  0.78143  1.0000
  O  Te45      1.0  0.97417  0.60203  0.81115  1.0000
  O  Te46      1.0  0.94896  0.47245  0.90177  1.0000
  O  Te47      1.0  0.89741  0.43362  0.83201  1.0000
  O  Te48      1.0  0.92264  0.56322  0.74138  1.0000
  Mg  Mg23      1.0  0.91601  0.41611  0.89270  1.0000
  Mg  Mg24      1.0  0.95559  0.61956  0.75041  1.0000
  C  Sn49      1.0  0.54713  0.30677  0.68585  1.0000
  C   C309      1.0  0.54474  0.27402  0.65289  1.0000
  C  Sn50      1.0  0.57386  0.23816  0.65361  1.0000
  C  Sn51      1.0  0.60604  0.23495  0.68800  1.0000
  C   C310      1.0  0.60841  0.26769  0.72093  1.0000
  C  Sn52      1.0  0.57930  0.30356  0.72024  1.0000
  O  Te49      1.0  0.51767  0.34233  0.68448  1.0000
  O  Te50      1.0  0.57084  0.20584  0.62029  1.0000
  O  Te51      1.0  0.63550  0.19936  0.68935  1.0000
  O  Te52      1.0  0.58230  0.33587  0.75354  1.0000
  Mg  Mg25      1.0  0.61831  0.16370  0.63654  1.0000
  Mg  Mg26      1.0  0.53484  0.37801  0.73733  1.0000
  C  Sn53      1.0  0.82865  0.58000  0.77701  1.0000
  C   C311      1.0  0.83400  0.54004  0.75396  1.0000
  C  Sn54      1.0  0.81433  0.53391  0.71220  1.0000
  C  Sn55      1.0  0.78881  0.56845  0.69306  1.0000
  C   C312      1.0  0.78347  0.60838  0.71610  1.0000
  C  Sn56      1.0  0.80312  0.61454  0.75787  1.0000
  O  Te53      1.0  0.84861  0.58541  0.81872  1.0000
  O  Te54      1.0  0.82014  0.49366  0.68981  1.0000
  O  Te55      1.0  0.76884  0.56301  0.65133  1.0000
  O  Te56      1.0  0.79733  0.65476  0.78026  1.0000
  Mg  Mg27      1.0  0.78639  0.50220  0.63383  1.0000
  Mg  Mg28      1.0  0.83108  0.64626  0.83623  1.0000
  C  Sn57      1.0  0.04466  0.80474  0.19042  1.0000
  C   C313      1.0  0.04284  0.77119  0.15826  1.0000
  C  Sn58      1.0  0.07181  0.73525  0.16049  1.0000
  C  Sn59      1.0  0.10325  0.73279  0.19563  1.0000
  C   C314      1.0  0.10506  0.76633  0.22778  1.0000
  C  Sn60      1.0  0.07610  0.80228  0.22556  1.0000
  O  Te57      1.0  0.01537  0.84035  0.18753  1.0000
  O  Te58      1.0  0.06936  0.70212  0.12794  1.0000
  O  Te59      1.0  0.13254  0.69714  0.19850  1.0000
  O  Te60      1.0  0.07853  0.83539  0.25809  1.0000
  Mg  Mg29      1.0  0.11633  0.66024  0.14625  1.0000
  Mg  Mg30      1.0  0.03157  0.87728  0.23983  1.0000
  C  Sn61      1.0  0.71406  0.95403  0.46182  1.0000
  C   C315      1.0  0.71513  0.91994  0.49328  1.0000
  C  Sn62      1.0  0.67637  0.90616  0.51416  1.0000
  C  Sn63      1.0  0.63569  0.92686  0.50335  1.0000
  C   C316      1.0  0.63463  0.96092  0.47190  1.0000
  C  Sn64      1.0  0.67338  0.97473  0.45101  1.0000
  O  Te61      1.0  0.75322  0.96727  0.44137  1.0000
  O  Te62      1.0  0.67827  0.87202  0.54551  1.0000
  O  Te63      1.0  0.59652  0.91359  0.52384  1.0000
  O  Te64      1.0  0.66646  0.00884  0.41967  1.0000
  Mg  Mg31      1.0  0.61604  0.86566  0.56433  1.0000
  Mg  Mg32      1.0  0.72867  0.01522  0.40081  1.0000
  C  Sn65      1.0  0.72370  0.55316  0.28856  1.0000
  C   C317      1.0  0.72628  0.59430  0.26725  1.0000
  C  Sn66      1.0  0.69139  0.60907  0.24051  1.0000
  C  Sn67      1.0  0.65311  0.58216  0.23496  1.0000
  C   C318      1.0  0.65055  0.54106  0.25627  1.0000
  C  Sn68      1.0  0.68543  0.52626  0.28302  1.0000
  O  Te65      1.0  0.75898  0.53907  0.31515  1.0000
  O  Te66      1.0  0.69473  0.65031  0.21953  1.0000
  O  Te67      1.0  0.61783  0.59629  0.20835  1.0000
  O  Te68      1.0  0.68209  0.48505  0.30399  1.0000
  Mg  Mg33      1.0  0.63796  0.65500  0.18671  1.0000
  Mg  Mg34      1.0  0.73883  0.48033  0.33684  1.0000
  C  Sn69      1.0  0.25434  0.33153  0.11276  1.0000
  C   C319      1.0  0.22309  0.29721  0.11390  1.0000
  C  Sn70      1.0  0.20232  0.28270  0.07481  1.0000
  C  Sn71      1.0  0.21302  0.30290  0.03370  1.0000
  C   C320      1.0  0.24426  0.33719  0.03257  1.0000
  C  Sn72      1.0  0.26504  0.35173  0.07165  1.0000
  O  Te69      1.0  0.27470  0.34550  0.15225  1.0000
  O  Te70      1.0  0.17117  0.24835  0.07679  1.0000
  O  Te71      1.0  0.20125  0.29121  0.99419  1.0000
  O  Te72      1.0  0.29618  0.38606  0.06968  1.0000
  Mg  Mg35      1.0  0.15241  0.24093  0.01398  1.0000
  Mg  Mg36      1.0  0.31497  0.39349  0.13246  1.0000
  C  Sn73      1.0  0.22418  0.33053  0.91716  1.0000
  C   C321      1.0  0.24590  0.33510  0.95811  1.0000
  C  Sn74      1.0  0.28690  0.31513  0.96530  1.0000
  C  Sn75      1.0  0.30663  0.29009  0.93082  1.0000
  C   C322      1.0  0.28492  0.28553  0.88989  1.0000
  C  Sn76      1.0  0.24390  0.30549  0.88268  1.0000
  O  Te73      1.0  0.18321  0.35078  0.91071  1.0000
  O  Te74      1.0  0.29935  0.31785  0.00653  1.0000
  O  Te75      1.0  0.34763  0.26983  0.93730  1.0000
  O  Te76      1.0  0.22284  0.30048  0.84148  1.0000
  Mg  Mg37      1.0  0.36335  0.28628  0.99920  1.0000
  Mg  Mg38      1.0  0.16747  0.33436  0.84875  1.0000
  C  Sn77      1.0  0.51960  0.35333  0.56044  1.0000
  C   C323      1.0  0.48694  0.35464  0.52735  1.0000
  C  Sn78      1.0  0.45178  0.32440  0.52778  1.0000
  C  Sn79      1.0  0.44917  0.29220  0.56203  1.0000
  C   C324      1.0  0.48181  0.29091  0.59511  1.0000
  C  Sn80      1.0  0.51700  0.32113  0.59469  1.0000
  O  Te77      1.0  0.55446  0.38388  0.55935  1.0000
  O  Te78      1.0  0.41953  0.32635  0.49433  1.0000
  O  Te79      1.0  0.41427  0.26164  0.56310  1.0000
  O  Te80      1.0  0.54922  0.31920  0.62813  1.0000
  Mg  Mg39      1.0  0.37845  0.27761  0.51020  1.0000
  Mg  Mg40      1.0  0.59030  0.36793  0.61230  1.0000
  C  Sn81      1.0  0.72259  0.16460  0.08232  1.0000
  C   C325      1.0  0.74539  0.16062  0.04232  1.0000
  C  Sn82      1.0  0.78654  0.18111  0.03713  1.0000
  C  Sn83      1.0  0.80530  0.20607  0.07268  1.0000
  C   C326      1.0  0.78251  0.21003  0.11265  1.0000
  C  Sn84      1.0  0.74135  0.18956  0.11787  1.0000
  O  Te81      1.0  0.68149  0.14383  0.08677  1.0000
  O  Te82      1.0  0.81732  0.17898  0.99682  1.0000
  O  Te83      1.0  0.84643  0.22684  0.06820  1.0000
  O  Te84      1.0  0.71920  0.19398  0.15815  1.0000
  Mg  Mg41      1.0  0.86381  0.21110  0.00689  1.0000
  Mg  Mg42      1.0  0.66410  0.15954  0.14813  1.0000
  C  Sn85      1.0  0.44203  0.68301  0.95291  1.0000
  C   C327      1.0  0.46471  0.64296  0.95786  1.0000
  C  Sn86      1.0  0.50590  0.63712  0.93813  1.0000
  C  Sn87      1.0  0.52483  0.67204  0.91296  1.0000
  C   C328      1.0  0.50216  0.71207  0.90803  1.0000
  C  Sn88      1.0  0.46097  0.71794  0.92774  1.0000
  O  Te85      1.0  0.40090  0.68812  0.97293  1.0000
  O  Te86      1.0  0.52793  0.59677  0.94353  1.0000
  O  Te87      1.0  0.56600  0.66690  0.89294  1.0000
  O  Te88      1.0  0.43894  0.75826  0.92235  1.0000
  Mg  Mg43      1.0  0.58316  0.60581  0.90987  1.0000
  Mg  Mg44      1.0  0.38372  0.74926  0.95602  1.0000
  C  Sn89      1.0  0.22199  0.94798  0.70975  1.0000
  C   C329      1.0  0.22568  0.90683  0.73086  1.0000
  C  Sn90      1.0  0.19139  0.89079  0.75726  1.0000
  C  Sn91      1.0  0.15259  0.91640  0.76265  1.0000
  C   C330      1.0  0.14890  0.95753  0.74154  1.0000
  C  Sn92      1.0  0.18318  0.97360  0.71514  1.0000
  O  Te89      1.0  0.25668  0.96336  0.68352  1.0000
  O  Te90      1.0  0.19585  0.84956  0.77804  1.0000
  O  Te91      1.0  0.11788  0.90099  0.78891  1.0000
  O  Te92      1.0  0.17370  0.01480  0.69436  1.0000
  Mg  Mg45      1.0  0.13953  0.84284  0.81040  1.0000
  Mg  Mg46      1.0  0.22999  0.02153  0.66198  1.0000
  C  Sn93      1.0  0.31738  0.45596  0.05829  1.0000
  C   C331      1.0  0.35699  0.46038  0.03514  1.0000
  C  Sn94      1.0  0.37063  0.44248  0.99364  1.0000
  C  Sn95      1.0  0.33531  0.41736  0.97489  1.0000
  C   C332      1.0  0.29573  0.41296  0.99803  1.0000
  C  Sn96      1.0  0.28206  0.43084  0.03953  1.0000
  O  Te93      1.0  0.31309  0.47645  0.09972  1.0000
  O  Te94      1.0  0.41055  0.44736  0.97114  1.0000
  O  Te95      1.0  0.33963  0.39687  0.93342  1.0000
  O  Te96      1.0  0.24217  0.42598  0.06203  1.0000
  Mg  Mg47      1.0  0.40040  0.41318  0.91564  1.0000
  Mg  Mg48      1.0  0.25227  0.46016  0.11752  1.0000
