data_image0
_chemical_formula_structural       C11HCHCHCHCHCHCHCHN6C9HCHCHCHN6C2Sn2C2HTe2HMgC2Sn2C2HTe2HMgC2Sn2C2HTe2HMg
_chemical_formula_sum              "C42 H18 N12 Sn6 Te6 Mg3"
_cell_length_a       14.5514
_cell_length_b       14.5137
_cell_length_c       8.09852
_cell_angle_alpha    91.7009
_cell_angle_beta     115.335
_cell_angle_gamma    119.925

_symmetry_space_group_name_H-M    'P1'
_space_group_IT_number       1

loop_
  _space_group_symop_operation_xyz
  'x, y, z'

loop_
  _atom_site_type_symbol
  _atom_site_label
  _atom_site_symmetry_multiplicity
  _atom_site_fract_x
  _atom_site_fract_y
  _atom_site_fract_z
  _atom_site_occupancy
  C   C1        1.0  0.62479  0.38909  0.25944  1.0000
  C   C2        1.0  0.56495  0.44692  0.25706  1.0000
  C   C3        1.0  0.62602  0.23253  0.26134  1.0000
  C   C4        1.0  0.56727  0.11533  0.25985  1.0000
  C   C5        1.0  0.78065  0.38890  0.25704  1.0000
  C   C6        1.0  0.39007  0.61445  0.24527  1.0000
  C   C7        1.0  0.44805  0.55521  0.24461  1.0000
  C   C8        1.0  0.39158  0.77253  0.24834  1.0000
  C   C9        1.0  0.45075  0.88976  0.24897  1.0000
  C   C10       1.0  0.23771  0.61716  0.25603  1.0000
  C   C11       1.0  0.60985  0.55268  0.23064  1.0000
  H   H1        1.0  0.58497  0.68733  0.20049  1.0000
  C   C12       1.0  0.46456  0.06341  0.28302  1.0000
  H   H2        1.0  0.33009  0.91271  0.30235  1.0000
  C   C13       1.0  0.40287  0.44919  0.27076  1.0000
  H   H3        1.0  0.42676  0.31410  0.29917  1.0000
  C   C14       1.0  0.55300  0.94149  0.22430  1.0000
  H   H4        1.0  0.68791  0.09257  0.20584  1.0000
  C   C15       1.0  0.55241  0.60654  0.22457  1.0000
  H   H5        1.0  0.68896  0.59057  0.21055  1.0000
  C   C16       1.0  0.40717  0.95235  0.27827  1.0000
  H   H6        1.0  0.43240  0.11267  0.30840  1.0000
  C   C17       1.0  0.46011  0.39525  0.27627  1.0000
  H   H7        1.0  0.32350  0.41104  0.29051  1.0000
  C   C18       1.0  0.61084  0.05277  0.22984  1.0000
  H   H8        1.0  0.58486  0.89209  0.19827  1.0000
  N   N1        1.0  0.44565  0.72068  0.24054  1.0000
  N   N2        1.0  0.28802  0.72459  0.25756  1.0000
  N   N3        1.0  0.28602  0.55887  0.25250  1.0000
  N   N4        1.0  0.57006  0.28308  0.26440  1.0000
  N   N5        1.0  0.73147  0.28189  0.25785  1.0000
  N   N6        1.0  0.73021  0.44590  0.25514  1.0000
  C   C19       1.0  0.60815  0.38432  0.75503  1.0000
  C   C20       1.0  0.60859  0.22755  0.75763  1.0000
  C   C21       1.0  0.76381  0.38339  0.75424  1.0000
  C   C22       1.0  0.88014  0.44152  0.75147  1.0000
  C   C23       1.0  0.37661  0.61147  0.75070  1.0000
  C   C24       1.0  0.37593  0.76832  0.75006  1.0000
  C   C25       1.0  0.21988  0.61120  0.74932  1.0000
  C   C26       1.0  0.10258  0.55237  0.74887  1.0000
  C   C27       1.0  0.93834  0.38703  0.75750  1.0000
  H   H9        1.0  0.09375  0.40057  0.75977  1.0000
  C   C28       1.0  0.04332  0.60639  0.74066  1.0000
  H   H10       1.0  0.88646  0.59189  0.73384  1.0000
  C   C29       1.0  0.04856  0.44211  0.75660  1.0000
  H   H11       1.0  0.89605  0.30181  0.76406  1.0000
  C   C30       1.0  0.93317  0.55132  0.74143  1.0000
  H   H12       1.0  0.08456  0.69086  0.73101  1.0000
  N   N7        1.0  0.43302  0.71816  0.75067  1.0000
  N   N8        1.0  0.26877  0.71813  0.74895  1.0000
  N   N9        1.0  0.26976  0.55410  0.75111  1.0000
  N   N10       1.0  0.55167  0.27764  0.75615  1.0000
  N   N11       1.0  0.71484  0.27697  0.75604  1.0000
  N   N12       1.0  0.71456  0.44126  0.75412  1.0000
  C   C31       1.0  0.98053  0.39148  0.26149  1.0000
  C   C32       1.0  0.91399  0.43344  0.26960  1.0000
  C  Sn1       1.0  0.95157  0.54200  0.26356  1.0000
  C  Sn2       1.0  0.05775  0.60961  0.24907  1.0000
  C   C33       1.0  0.12364  0.56684  0.24091  1.0000
  C   C34       1.0  0.08524  0.45810  0.24712  1.0000
  H   H13       1.0  0.95079  0.30733  0.26619  1.0000
  O  Te1       1.0  0.88405  0.58262  0.27188  1.0000
  O  Te2       1.0  0.09732  0.71840  0.24269  1.0000
  H   H14       1.0  0.13673  0.42561  0.24071  1.0000
  Mg  Mg1       1.0  0.97469  0.73619  0.25845  1.0000
  C   C35       1.0  0.39324  0.97479  0.78912  1.0000
  C   C36       1.0  0.41667  0.89730  0.74756  1.0000
  C  Sn3       1.0  0.51415  0.93034  0.71559  1.0000
  C  Sn4       1.0  0.58942  0.04311  0.72555  1.0000
  C   C37       1.0  0.56527  0.12002  0.76736  1.0000
  C   C38       1.0  0.46747  0.08605  0.79905  1.0000
  H   H15       1.0  0.31761  0.94854  0.81375  1.0000
  O  Te3       1.0  0.53625  0.85183  0.67416  1.0000
  O  Te4       1.0  0.68748  0.07840  0.69427  1.0000
  H   H16       1.0  0.44940  0.14609  0.83135  1.0000
  Mg  Mg2       1.0  0.68074  0.94032  0.64248  1.0000
  C   C39       1.0  0.38695  0.41913  0.77043  1.0000
  C   C40       1.0  0.42393  0.52746  0.76327  1.0000
  C  Sn5       1.0  0.52494  0.59327  0.74025  1.0000
  C  Sn6       1.0  0.58994  0.54958  0.72407  1.0000
  C   C41       1.0  0.55216  0.44107  0.73126  1.0000
  C   C42       1.0  0.45098  0.37595  0.75441  1.0000
  H   H17       1.0  0.30863  0.36871  0.78823  1.0000
  O  Te5       1.0  0.56068  0.70135  0.73346  1.0000
  O  Te6       1.0  0.69119  0.61353  0.70088  1.0000
  H   H18       1.0  0.42232  0.29206  0.75982  1.0000
  Mg  Mg3       1.0  0.70451  0.75609  0.70003  1.0000
