data_image0
_chemical_formula_structural       C6H3C6H3C3HC2HCH2C3HC2HC4HC2HCH4C6H3C6H3C3HC2HCH2C3HC2HCH2C3HC2HCH2C2Sn2C2HTe2HMgC2Sn2C2HTe2HMgC2Sn2C2HTe2HMgC2Sn2C2HTe2HMgC2Sn2C2HTe2HMgC2Sn2C2HTe2HMg
_chemical_formula_sum              "C84 H48 Sn12 Te12 Mg6"
_cell_length_a       22.4991
_cell_length_b       22.5416
_cell_length_c       8.47436
_cell_angle_alpha    88.6882
_cell_angle_beta     117.538
_cell_angle_gamma    120.176

_symmetry_space_group_name_H-M    'P1'
_space_group_IT_number       1

loop_
  _space_group_symop_operation_xyz
  'x, y, z'

loop_
  _atom_site_type_symbol
  _atom_site_label
  _atom_site_symmetry_multiplicity
  _atom_site_fract_x
  _atom_site_fract_y
  _atom_site_fract_z
  _atom_site_occupancy
  C   C1        1.0  0.57167  0.53544  0.72522  1.0000
  C   C2        1.0  0.53832  0.46500  0.73853  1.0000
  C   C3        1.0  0.46615  0.42700  0.73820  1.0000
  C   C4        1.0  0.42943  0.46262  0.73427  1.0000
  C   C5        1.0  0.46184  0.53377  0.72623  1.0000
  C   C6        1.0  0.53158  0.56837  0.71553  1.0000
  H   H1        1.0  0.57003  0.43952  0.75423  1.0000
  H   H2        1.0  0.37472  0.43421  0.73884  1.0000
  H   H3        1.0  0.55432  0.62146  0.69534  1.0000
  C   C7        1.0  0.10148  0.80015  0.76092  1.0000
  C   C8        1.0  0.13448  0.76307  0.74795  1.0000
  C   C9        1.0  0.20408  0.79586  0.73726  1.0000
  C   C10       1.0  0.23967  0.86775  0.73529  1.0000
  C   C11       1.0  0.20868  0.90693  0.74829  1.0000
  C   C12       1.0  0.14081  0.87256  0.76576  1.0000
  H   H4        1.0  0.10363  0.70666  0.73967  1.0000
  H   H5        1.0  0.29159  0.89340  0.71969  1.0000
  H   H6        1.0  0.11899  0.90307  0.78745  1.0000
  C   C13       1.0  0.79751  0.65005  0.73735  1.0000
  C   C14       1.0  0.75059  0.57508  0.69303  1.0000
  C   C15       1.0  0.69495  0.64931  0.77005  1.0000
  H   H7        1.0  0.77067  0.54529  0.65781  1.0000
  C   C16       1.0  0.76721  0.68605  0.77341  1.0000
  C   C17       1.0  0.67760  0.53826  0.68635  1.0000
  H   H8        1.0  0.80241  0.74403  0.81111  1.0000
  C   C18       1.0  0.64799  0.57432  0.72613  1.0000
  H   H9        1.0  0.64229  0.48028  0.64591  1.0000
  H   H10       1.0  0.67607  0.67964  0.80841  1.0000
  C   C19       1.0  0.24636  0.98252  0.74435  1.0000
  C   C20       1.0  0.32492  0.02405  0.77623  1.0000
  C   C21       1.0  0.24212  0.08877  0.71624  1.0000
  H   H11       1.0  0.35932  0.00035  0.80395  1.0000
  C   C22       1.0  0.20580  0.01699  0.71260  1.0000
  C   C23       1.0  0.36105  0.09566  0.77782  1.0000
  H   H12       1.0  0.14442  0.98716  0.68379  1.0000
  C   C24       1.0  0.32082  0.13015  0.74912  1.0000
  C   C25       1.0  0.35860  0.20578  0.74920  1.0000
  C   C26       1.0  0.41481  0.23743  0.69242  1.0000
  C   C27       1.0  0.37439  0.32003  0.80217  1.0000
  H   H13       1.0  0.42868  0.20507  0.64150  1.0000
  C   C28       1.0  0.33910  0.24880  0.80370  1.0000
  C   C29       1.0  0.44952  0.30853  0.68955  1.0000
  H   H14       1.0  0.29815  0.22704  0.85485  1.0000
  C   C30       1.0  0.43026  0.35174  0.74444  1.0000
  H   H15       1.0  0.48964  0.32980  0.63621  1.0000
  H   H16       1.0  0.42230  0.12591  0.80534  1.0000
  H   H17       1.0  0.36015  0.35200  0.85296  1.0000
  H   H18       1.0  0.20848  0.11315  0.69025  1.0000
  C   C31       1.0  0.56865  0.53574  0.22535  1.0000
  C   C32       1.0  0.53291  0.46465  0.23338  1.0000
  C   C33       1.0  0.46182  0.42816  0.23812  1.0000
  C   C34       1.0  0.42638  0.46505  0.23382  1.0000
  C   C35       1.0  0.46018  0.53624  0.22645  1.0000
  C   C36       1.0  0.53113  0.57050  0.22178  1.0000
  H   H19       1.0  0.56157  0.43741  0.23669  1.0000
  H   H20       1.0  0.37150  0.43819  0.23739  1.0000
  H   H21       1.0  0.55783  0.62552  0.21614  1.0000
  C   C37       1.0  0.09826  0.79904  0.25779  1.0000
  C   C38       1.0  0.13218  0.76288  0.24446  1.0000
  C   C39       1.0  0.20092  0.79654  0.23002  1.0000
  C   C40       1.0  0.23629  0.86876  0.23147  1.0000
  C   C41       1.0  0.20475  0.90712  0.24621  1.0000
  C   C42       1.0  0.13578  0.87116  0.25950  1.0000
  H   H22       1.0  0.10367  0.70710  0.24303  1.0000
  H   H23       1.0  0.28866  0.89555  0.21763  1.0000
  H   H24       1.0  0.11089  0.90010  0.27195  1.0000
  C   C43       1.0  0.02331  0.76173  0.26283  1.0000
  C   C44       1.0  0.99599  0.69705  0.31139  1.0000
  C   C45       1.0  0.90287  0.75329  0.21077  1.0000
  H   H25       1.0  0.03306  0.67544  0.35811  1.0000
  C   C46       1.0  0.97501  0.78916  0.21392  1.0000
  C   C47       1.0  0.92321  0.66075  0.30602  1.0000
  H   H26       1.0  0.99257  0.83807  0.17086  1.0000
  C   C48       1.0  0.87415  0.68747  0.25341  1.0000
  H   H27       1.0  0.90500  0.61173  0.34865  1.0000
  H   H28       1.0  0.86650  0.77551  0.16807  1.0000
  C   C49       1.0  0.23600  0.75750  0.21669  1.0000
  C   C50       1.0  0.19641  0.68321  0.19086  1.0000
  C   C51       1.0  0.34873  0.75831  0.23859  1.0000
  H   H29       1.0  0.13632  0.65210  0.16988  1.0000
  C   C52       1.0  0.31266  0.79358  0.23733  1.0000
  C   C53       1.0  0.23263  0.64785  0.19322  1.0000
  H   H30       1.0  0.34602  0.85082  0.25633  1.0000
  C   C54       1.0  0.31019  0.68454  0.21941  1.0000
  H   H31       1.0  0.19962  0.59037  0.17193  1.0000
  H   H32       1.0  0.40852  0.78866  0.25757  1.0000
  C   C55       1.0  0.34900  0.20452  0.23370  1.0000
  C   C56       1.0  0.42748  0.24579  0.26528  1.0000
  C   C57       1.0  0.34611  0.31140  0.21334  1.0000
  H   H33       1.0  0.46064  0.22114  0.28801  1.0000
  C   C58       1.0  0.30954  0.23952  0.20905  1.0000
  C   C59       1.0  0.46431  0.31778  0.27150  1.0000
  H   H34       1.0  0.24863  0.20973  0.18368  1.0000
  C   C60       1.0  0.42447  0.35270  0.24356  1.0000
  H   H35       1.0  0.52537  0.34712  0.29808  1.0000
  H   H36       1.0  0.31221  0.33533  0.19020  1.0000
  C   C61       1.0  0.30533  0.55063  0.68379  1.0000
  C   C62       1.0  0.33579  0.62341  0.71767  1.0000
  C  Sn1       1.0  0.41288  0.67291  0.75064  1.0000
  C  Sn2       1.0  0.46020  0.64894  0.74955  1.0000
  C   C63       1.0  0.42916  0.57601  0.71540  1.0000
  C   C64       1.0  0.35195  0.52694  0.68262  1.0000
  H   H37       1.0  0.24557  0.51265  0.65833  1.0000
  O  Te1       1.0  0.44240  0.74543  0.78431  1.0000
  O  Te2       1.0  0.53743  0.69727  0.78203  1.0000
  H   H38       1.0  0.32836  0.47059  0.65628  1.0000
  Mg  Mg1       1.0  0.55114  0.79064  0.82115  1.0000
  C   C65       1.0  0.33059  0.56822  0.28489  1.0000
  C   C66       1.0  0.34421  0.63247  0.24242  1.0000
  C  Sn3       1.0  0.39684  0.66813  0.17881  1.0000
  C  Sn4       1.0  0.43645  0.63877  0.15741  1.0000
  C   C67       1.0  0.42238  0.57444  0.20015  1.0000
  C   C68       1.0  0.36962  0.53922  0.26375  1.0000
  H   H39       1.0  0.28974  0.54095  0.33401  1.0000
  O  Te3       1.0  0.40978  0.73228  0.13708  1.0000
  O  Te4       1.0  0.48933  0.67328  0.09402  1.0000
  H   H40       1.0  0.35904  0.48945  0.29651  1.0000
  Mg  Mg2       1.0  0.48731  0.75936  0.05532  1.0000
  C   C69       1.0  0.32329  0.75775  0.64581  1.0000
  C   C70       1.0  0.31608  0.69743  0.70542  1.0000
  C  Sn5       1.0  0.26423  0.66192  0.77108  1.0000
  C  Sn6       1.0  0.21883  0.68738  0.77695  1.0000
  C   C71       1.0  0.22644  0.74774  0.71688  1.0000
  C   C72       1.0  0.27851  0.78289  0.65149  1.0000
  H   H41       1.0  0.36355  0.78492  0.59512  1.0000
  O  Te5       1.0  0.25777  0.60174  0.83017  1.0000
  O  Te6       1.0  0.16655  0.65289  0.84187  1.0000
  H   H42       1.0  0.28405  0.82956  0.60523  1.0000
  Mg  Mg3       1.0  0.17848  0.57305  0.90717  1.0000
  C   C73       1.0  0.31048  0.03027  0.17240  1.0000
  C   C74       1.0  0.76310  0.99112  0.23799  1.0000
  C  Sn7       1.0  0.73420  0.02158  0.30003  1.0000
  C  Sn8       1.0  0.25324  0.09254  0.29612  1.0000
  C   C75       1.0  0.30423  0.13124  0.23013  1.0000
  C   C76       1.0  0.33282  0.10025  0.16843  1.0000
  H   H43       1.0  0.83618  0.00628  0.12456  1.0000
  O  Te7       1.0  0.68333  0.98173  0.36519  1.0000
  O  Te8       1.0  0.22521  0.12427  0.35724  1.0000
  H   H44       1.0  0.37225  0.13055  0.11754  1.0000
  Mg  Mg4       1.0  0.15724  0.04836  0.43366  1.0000
  C   C77       1.0  0.74847  0.68547  0.27217  1.0000
  C   C78       1.0  0.78989  0.65897  0.25330  1.0000
  C  Sn9       1.0  0.75528  0.58550  0.20837  1.0000
  C  Sn10      1.0  0.67774  0.53782  0.18188  1.0000
  C   C79       1.0  0.63676  0.56486  0.20095  1.0000
  C   C80       1.0  0.67197  0.63847  0.24600  1.0000
  H   H45       1.0  0.77568  0.74242  0.30693  1.0000
  O  Te9       1.0  0.79751  0.55993  0.19011  1.0000
  O  Te10      1.0  0.64172  0.46415  0.13683  1.0000
  H   H46       1.0  0.63986  0.65897  0.26049  1.0000
  Mg  Mg5       1.0  0.72319  0.45513  0.12721  1.0000
  C   C81       1.0  0.95889  0.78974  0.70040  1.0000
  C   C82       1.0  0.01658  0.77322  0.75829  1.0000
  C  Sn11      1.0  0.00235  0.71025  0.80982  1.0000
  C  Sn12      1.0  0.92892  0.66303  0.80306  1.0000
  C   C83       1.0  0.87156  0.68001  0.74483  1.0000
  C   C84       1.0  0.88643  0.74318  0.69364  1.0000
  H   H47       1.0  0.97037  0.83859  0.66070  1.0000
  O  Te11      1.0  0.06065  0.69459  0.86738  1.0000
  O  Te12      1.0  0.91312  0.59972  0.85372  1.0000
  H   H48       1.0  0.84173  0.75593  0.64871  1.0000
  Mg  Mg6       1.0  0.01127  0.60188  0.92265  1.0000
