data_image0
_chemical_formula_structural       C6H3C6H3C6H3C6H3SnCSn2CSnTe4Mg2SnCSn2CSnTe4Mg2SnCSn2CSnTe4Mg2SnCSn2CSnTe4Mg2SnCSn2CSnTe4Mg2SnCSn2CSnTe4Mg2SnCSn2CSnTe4Mg2SnCSn2CSnTe4Mg2SnCSn2CSnTe4Mg2SnCSn2CSnTe4Mg2SnCSn2CSnTe4Mg2SnCSn2CSnTe4Mg2
_chemical_formula_sum              "C48 H12 Sn48 Te48 Mg24"
_cell_length_a       22.4991
_cell_length_b       22.5416
_cell_length_c       8.47436
_cell_angle_alpha    88.6882
_cell_angle_beta     117.538
_cell_angle_gamma    120.176

_symmetry_space_group_name_H-M    'P1'
_space_group_IT_number       1

loop_
  _space_group_symop_operation_xyz
  'x, y, z'

loop_
  _atom_site_type_symbol
  _atom_site_label
  _atom_site_symmetry_multiplicity
  _atom_site_fract_x
  _atom_site_fract_y
  _atom_site_fract_z
  _atom_site_occupancy
  C   C1        1.0  0.57167  0.53544  0.72522  1.0000
  C   C2        1.0  0.53832  0.46500  0.73853  1.0000
  C   C3        1.0  0.46615  0.42700  0.73820  1.0000
  C   C4        1.0  0.42943  0.46262  0.73427  1.0000
  C   C5        1.0  0.46184  0.53377  0.72623  1.0000
  C   C6        1.0  0.53158  0.56837  0.71553  1.0000
  H   H1        1.0  0.57003  0.43952  0.75423  1.0000
  H   H2        1.0  0.37472  0.43421  0.73884  1.0000
  H   H3        1.0  0.55432  0.62146  0.69534  1.0000
  C   C7        1.0  0.10148  0.80015  0.76092  1.0000
  C   C8        1.0  0.13448  0.76307  0.74795  1.0000
  C   C9        1.0  0.20408  0.79586  0.73726  1.0000
  C   C10       1.0  0.23967  0.86775  0.73529  1.0000
  C   C11       1.0  0.20868  0.90693  0.74829  1.0000
  C   C12       1.0  0.14081  0.87256  0.76576  1.0000
  H   H4        1.0  0.10363  0.70666  0.73967  1.0000
  H   H5        1.0  0.29159  0.89340  0.71969  1.0000
  H   H6        1.0  0.11899  0.90307  0.78745  1.0000
  C   C13       1.0  0.56865  0.53574  0.22535  1.0000
  C   C14       1.0  0.53291  0.46465  0.23338  1.0000
  C   C15       1.0  0.46182  0.42816  0.23812  1.0000
  C   C16       1.0  0.42638  0.46505  0.23382  1.0000
  C   C17       1.0  0.46018  0.53624  0.22645  1.0000
  C   C18       1.0  0.53113  0.57050  0.22178  1.0000
  H   H7        1.0  0.56157  0.43741  0.23669  1.0000
  H   H8        1.0  0.37150  0.43819  0.23739  1.0000
  H   H9        1.0  0.55783  0.62552  0.21614  1.0000
  C   C19       1.0  0.09826  0.79904  0.25779  1.0000
  C   C20       1.0  0.13218  0.76288  0.24446  1.0000
  C   C21       1.0  0.20092  0.79654  0.23002  1.0000
  C   C22       1.0  0.23629  0.86876  0.23147  1.0000
  C   C23       1.0  0.20475  0.90712  0.24621  1.0000
  C   C24       1.0  0.13578  0.87116  0.25950  1.0000
  H   H10       1.0  0.10367  0.70710  0.24303  1.0000
  H   H11       1.0  0.28866  0.89555  0.21763  1.0000
  H   H12       1.0  0.11089  0.90010  0.27195  1.0000
  C  Sn1       1.0  0.97384  0.79803  0.76281  1.0000
  C   C25       1.0  0.02662  0.77664  0.80295  1.0000
  C  Sn2       1.0  0.00177  0.70614  0.80466  1.0000
  C  Sn3       1.0  0.92248  0.65596  0.76532  1.0000
  C   C26       1.0  0.86974  0.67735  0.72517  1.0000
  C  Sn4       1.0  0.89456  0.74784  0.72346  1.0000
  O  Te1       1.0  0.99998  0.86878  0.76187  1.0000
  O  Te2       1.0  0.05562  0.68602  0.84525  1.0000
  O  Te3       1.0  0.89637  0.58516  0.76630  1.0000
  O  Te4       1.0  0.84074  0.76796  0.68288  1.0000
  Mg  Mg1       1.0  0.99184  0.58351  0.82947  1.0000
  Mg  Mg2       1.0  0.90445  0.87045  0.69853  1.0000
  C  Sn5       1.0  0.70403  0.54243  0.73852  1.0000
  C   C27       1.0  0.66545  0.56989  0.76854  1.0000
  C  Sn6       1.0  0.68955  0.64040  0.76923  1.0000
  C  Sn7       1.0  0.75351  0.68437  0.73918  1.0000
  C   C28       1.0  0.79204  0.65690  0.70916  1.0000
  C  Sn8       1.0  0.76800  0.58640  0.70847  1.0000
  O  Te5       1.0  0.67894  0.47178  0.73841  1.0000
  O  Te6       1.0  0.65007  0.66666  0.79960  1.0000
  O  Te7       1.0  0.77858  0.75506  0.73932  1.0000
  O  Te8       1.0  0.80742  0.56013  0.67809  1.0000
  Mg  Mg3       1.0  0.70609  0.76638  0.78683  1.0000
  Mg  Mg4       1.0  0.75143  0.46041  0.69074  1.0000
  C  Sn9       1.0  0.34091  0.76581  0.70764  1.0000
  C   C29       1.0  0.32628  0.70138  0.75018  1.0000
  C  Sn10      1.0  0.25950  0.65721  0.76659  1.0000
  C  Sn11      1.0  0.20618  0.67786  0.73981  1.0000
  C   C30       1.0  0.22081  0.74225  0.69726  1.0000
  C  Sn12      1.0  0.28759  0.78645  0.68086  1.0000
  O  Te9       1.0  0.40805  0.80912  0.69191  1.0000
  O  Te10      1.0  0.24615  0.59306  0.80929  1.0000
  O  Te11      1.0  0.13901  0.63448  0.75558  1.0000
  O  Te12      1.0  0.30095  0.85056  0.63816  1.0000
  Mg  Mg5       1.0  0.14643  0.55220  0.81582  1.0000
  Mg  Mg6       1.0  0.40062  0.89144  0.63150  1.0000
  C  Sn13      1.0  0.32277  0.53311  0.63974  1.0000
  C   C31       1.0  0.40013  0.56260  0.67179  1.0000
  C  Sn14      1.0  0.45721  0.63613  0.74451  1.0000
  C  Sn15      1.0  0.43656  0.68113  0.78617  1.0000
  C   C32       1.0  0.35925  0.65165  0.75416  1.0000
  C  Sn16      1.0  0.30212  0.57812  0.68141  1.0000
  O  Te13      1.0  0.26667  0.45946  0.56697  1.0000
  O  Te14      1.0  0.53415  0.66436  0.77530  1.0000
  O  Te15      1.0  0.49273  0.75483  0.85900  1.0000
  O  Te16      1.0  0.22523  0.54988  0.65065  1.0000
  Mg  Mg7       1.0  0.58966  0.76798  0.87656  1.0000
  Mg  Mg8       1.0  0.16968  0.44627  0.54948  1.0000
  C  Sn17      1.0  0.84984  0.04521  0.83396  1.0000
  C   C33       1.0  0.77219  0.99677  0.79927  1.0000
  C  Sn18      1.0  0.71356  0.01234  0.71806  1.0000
  C  Sn19      1.0  0.22933  0.07766  0.67041  1.0000
  C   C34       1.0  0.30693  0.12605  0.70507  1.0000
  C  Sn20      1.0  0.36561  0.11054  0.78631  1.0000
  O  Te17      1.0  0.90749  0.02854  0.91526  1.0000
  O  Te18      1.0  0.63635  0.96308  0.68478  1.0000
  O  Te19      1.0  0.17159  0.09430  0.58905  1.0000
  O  Te20      1.0  0.44277  0.15974  0.81955  1.0000
  Mg  Mg9       1.0  0.57852  0.01004  0.57119  1.0000
  Mg  Mg10      1.0  0.50063  0.11283  0.93304  1.0000
  C  Sn21      1.0  0.44363  0.25792  0.73926  1.0000
  C   C35       1.0  0.38742  0.21852  0.79142  1.0000
  C  Sn22      1.0  0.34498  0.24401  0.80904  1.0000
  C  Sn23      1.0  0.35897  0.31023  0.77369  1.0000
  C   C36       1.0  0.41514  0.34958  0.72154  1.0000
  C  Sn24      1.0  0.45762  0.32414  0.70391  1.0000
  O  Te21      1.0  0.48536  0.23141  0.72249  1.0000
  O  Te22      1.0  0.28911  0.20368  0.86142  1.0000
  O  Te23      1.0  0.31718  0.33672  0.79051  1.0000
  O  Te24      1.0  0.51344  0.36443  0.65153  1.0000
  Mg  Mg11      1.0  0.24721  0.26229  0.86549  1.0000
  Mg  Mg12      1.0  0.55535  0.30585  0.64733  1.0000
  C  Sn25      1.0  0.90529  0.75323  0.15378  1.0000
  C   C37       1.0  0.87161  0.69067  0.20498  1.0000
  C  Sn26      1.0  0.91818  0.66451  0.30667  1.0000
  C  Sn27      1.0  0.00016  0.70169  0.35838  1.0000
  C   C38       1.0  0.03380  0.76422  0.30722  1.0000
  C  Sn28      1.0  0.98726  0.79041  0.20549  1.0000
  O  Te25      1.0  0.85760  0.77841  0.05213  1.0000
  O  Te26      1.0  0.88316  0.60185  0.35620  1.0000
  O  Te27      1.0  0.04784  0.67646  0.46010  1.0000
  O  Te28      1.0  0.02225  0.85304  0.15600  1.0000
  Mg  Mg13      1.0  0.97280  0.58886  0.49484  1.0000
  Mg  Mg14      1.0  0.93269  0.86609  0.01744  1.0000
  C  Sn29      1.0  0.70123  0.54151  0.24323  1.0000
  C   C39       1.0  0.66220  0.56951  0.26853  1.0000
  C  Sn30      1.0  0.68646  0.63984  0.26591  1.0000
  C  Sn31      1.0  0.75105  0.68307  0.23729  1.0000
  C   C40       1.0  0.79003  0.65506  0.21198  1.0000
  C  Sn32      1.0  0.76582  0.58474  0.21461  1.0000
  O  Te29      1.0  0.67596  0.47105  0.24636  1.0000
  O  Te30      1.0  0.64654  0.66666  0.29158  1.0000
  O  Te31      1.0  0.77630  0.75357  0.23418  1.0000
  O  Te32      1.0  0.80570  0.55792  0.18893  1.0000
  Mg  Mg15      1.0  0.70303  0.76584  0.27570  1.0000
  Mg  Mg16      1.0  0.74924  0.45874  0.20468  1.0000
  C  Sn33      1.0  0.20941  0.67463  0.24470  1.0000
  C   C41       1.0  0.23906  0.74693  0.26084  1.0000
  C  Sn34      1.0  0.30422  0.79062  0.23851  1.0000
  C  Sn35      1.0  0.34047  0.76142  0.19911  1.0000
  C   C42       1.0  0.31082  0.68916  0.18296  1.0000
  C  Sn36      1.0  0.24567  0.64543  0.20530  1.0000
  O  Te33      1.0  0.14421  0.63194  0.26754  1.0000
  O  Te34      1.0  0.33281  0.86275  0.25536  1.0000
  O  Te35      1.0  0.40572  0.80417  0.17627  1.0000
  O  Te36      1.0  0.21706  0.57333  0.18844  1.0000
  Mg  Mg17      1.0  0.42299  0.89922  0.21228  1.0000
  Mg  Mg18      1.0  0.12687  0.53681  0.23140  1.0000
  C  Sn37      1.0  0.33720  0.54112  0.23337  1.0000
  C   C43       1.0  0.39487  0.55965  0.18572  1.0000
  C  Sn38      1.0  0.43693  0.62792  0.16712  1.0000
  C  Sn39      1.0  0.42106  0.67875  0.19690  1.0000
  C   C44       1.0  0.36344  0.66021  0.24456  1.0000
  C  Sn40      1.0  0.32133  0.59195  0.26315  1.0000
  O  Te37      1.0  0.29588  0.47256  0.25121  1.0000
  O  Te38      1.0  0.49429  0.64520  0.11931  1.0000
  O  Te39      1.0  0.46245  0.74735  0.17901  1.0000
  O  Te40      1.0  0.26402  0.57467  0.31097  1.0000
  Mg  Mg19      1.0  0.53492  0.74547  0.11164  1.0000
  Mg  Mg20      1.0  0.22339  0.47443  0.31877  1.0000
  C  Sn41      1.0  0.32671  0.03601  0.23443  1.0000
  C   C45       1.0  0.77290  0.99586  0.28280  1.0000
  C  Sn42      1.0  0.72888  0.02040  0.29560  1.0000
  C  Sn43      1.0  0.23888  0.08641  0.25919  1.0000
  C   C46       1.0  0.29626  0.12651  0.21083  1.0000
  C  Sn44      1.0  0.34032  0.10203  0.19803  1.0000
  O  Te41      1.0  0.87363  0.01045  0.22245  1.0000
  O  Te42      1.0  0.67182  0.97933  0.34425  1.0000
  O  Te43      1.0  0.19552  0.11195  0.27122  1.0000
  O  Te44      1.0  0.39734  0.14304  0.14938  1.0000
  Mg  Mg21      1.0  0.12435  0.03677  0.34238  1.0000
  Mg  Mg22      1.0  0.44121  0.08565  0.15112  1.0000
  C  Sn45      1.0  0.34287  0.30128  0.26544  1.0000
  C   C47       1.0  0.41875  0.34870  0.28940  1.0000
  C  Sn46      1.0  0.46107  0.32319  0.27119  1.0000
  C  Sn47      1.0  0.42682  0.24874  0.22802  1.0000
  C   C48       1.0  0.35098  0.20137  0.20405  1.0000
  C  Sn48      1.0  0.30862  0.22683  0.22226  1.0000
  O  Te45      1.0  0.30164  0.32797  0.28428  1.0000
  O  Te46      1.0  0.53685  0.37163  0.29585  1.0000
  O  Te47      1.0  0.46813  0.22207  0.20920  1.0000
  O  Te48      1.0  0.23289  0.17844  0.19760  1.0000
  Mg  Mg23      1.0  0.56949  0.30928  0.25576  1.0000
  Mg  Mg24      1.0  0.20018  0.24072  0.23757  1.0000
