data_image0
_chemical_formula_structural       C6H3C6H3C6H3C6H3C2Sn2C2HTe2HMgC2Sn2C2HTe2HMgC2Sn2C2HTe2HMgC2Sn2C2HTe2HMgC2Sn2C2HTe2HMgC2Sn2C2HTe2HMgC2Sn2C2HTe2HMgC2Sn2C2HTe2HMgC2Sn2C2HTe2HMgC2Sn2C2HTe2HMgC2Sn2C2HTe2HMgC2Sn2C2HTe2HMg
_chemical_formula_sum              "C72 H36 Sn24 Te24 Mg12"
_cell_length_a       22.4991
_cell_length_b       22.5416
_cell_length_c       8.47436
_cell_angle_alpha    88.6882
_cell_angle_beta     117.538
_cell_angle_gamma    120.176

_symmetry_space_group_name_H-M    'P1'
_space_group_IT_number       1

loop_
  _space_group_symop_operation_xyz
  'x, y, z'

loop_
  _atom_site_type_symbol
  _atom_site_label
  _atom_site_symmetry_multiplicity
  _atom_site_fract_x
  _atom_site_fract_y
  _atom_site_fract_z
  _atom_site_occupancy
  C   C1        1.0  0.57167  0.53544  0.72522  1.0000
  C   C2        1.0  0.53832  0.46500  0.73853  1.0000
  C   C3        1.0  0.46615  0.42700  0.73820  1.0000
  C   C4        1.0  0.42943  0.46262  0.73427  1.0000
  C   C5        1.0  0.46184  0.53377  0.72623  1.0000
  C   C6        1.0  0.53158  0.56837  0.71553  1.0000
  H   H1        1.0  0.57003  0.43952  0.75423  1.0000
  H   H2        1.0  0.37472  0.43421  0.73884  1.0000
  H   H3        1.0  0.55432  0.62146  0.69534  1.0000
  C   C7        1.0  0.10148  0.80015  0.76092  1.0000
  C   C8        1.0  0.13448  0.76307  0.74795  1.0000
  C   C9        1.0  0.20408  0.79586  0.73726  1.0000
  C   C10       1.0  0.23967  0.86775  0.73529  1.0000
  C   C11       1.0  0.20868  0.90693  0.74829  1.0000
  C   C12       1.0  0.14081  0.87256  0.76576  1.0000
  H   H4        1.0  0.10363  0.70666  0.73967  1.0000
  H   H5        1.0  0.29159  0.89340  0.71969  1.0000
  H   H6        1.0  0.11899  0.90307  0.78745  1.0000
  C   C13       1.0  0.56865  0.53574  0.22535  1.0000
  C   C14       1.0  0.53291  0.46465  0.23338  1.0000
  C   C15       1.0  0.46182  0.42816  0.23812  1.0000
  C   C16       1.0  0.42638  0.46505  0.23382  1.0000
  C   C17       1.0  0.46018  0.53624  0.22645  1.0000
  C   C18       1.0  0.53113  0.57050  0.22178  1.0000
  H   H7        1.0  0.56157  0.43741  0.23669  1.0000
  H   H8        1.0  0.37150  0.43819  0.23739  1.0000
  H   H9        1.0  0.55783  0.62552  0.21614  1.0000
  C   C19       1.0  0.09826  0.79904  0.25779  1.0000
  C   C20       1.0  0.13218  0.76288  0.24446  1.0000
  C   C21       1.0  0.20092  0.79654  0.23002  1.0000
  C   C22       1.0  0.23629  0.86876  0.23147  1.0000
  C   C23       1.0  0.20475  0.90712  0.24621  1.0000
  C   C24       1.0  0.13578  0.87116  0.25950  1.0000
  H   H10       1.0  0.10367  0.70710  0.24303  1.0000
  H   H11       1.0  0.28866  0.89555  0.21763  1.0000
  H   H12       1.0  0.11089  0.90010  0.27195  1.0000
  C   C25       1.0  0.95889  0.78974  0.70040  1.0000
  C   C26       1.0  0.01658  0.77322  0.75829  1.0000
  C  Sn1       1.0  0.00235  0.71025  0.80982  1.0000
  C  Sn2       1.0  0.92892  0.66303  0.80306  1.0000
  C   C27       1.0  0.87156  0.68001  0.74483  1.0000
  C   C28       1.0  0.88643  0.74318  0.69364  1.0000
  H   H13       1.0  0.97037  0.83859  0.66070  1.0000
  O  Te1       1.0  0.06065  0.69459  0.86738  1.0000
  O  Te2       1.0  0.91312  0.59972  0.85372  1.0000
  H   H14       1.0  0.84173  0.75593  0.64871  1.0000
  Mg  Mg1       1.0  0.01127  0.60188  0.92265  1.0000
  C   C29       1.0  0.73337  0.55773  0.68894  1.0000
  C   C30       1.0  0.78547  0.63086  0.72001  1.0000
  C  Sn3       1.0  0.77026  0.67888  0.76562  1.0000
  C  Sn4       1.0  0.70158  0.65305  0.78036  1.0000
  C   C31       1.0  0.64985  0.57979  0.74915  1.0000
  C   C32       1.0  0.66563  0.53221  0.70353  1.0000
  H   H15       1.0  0.74559  0.52091  0.65374  1.0000
  O  Te3       1.0  0.82292  0.75178  0.79614  1.0000
  O  Te4       1.0  0.68496  0.69986  0.82582  1.0000
  H   H16       1.0  0.62530  0.47559  0.67960  1.0000
  Mg  Mg2       1.0  0.77460  0.79446  0.85450  1.0000
  C   C33       1.0  0.21550  0.67329  0.77229  1.0000
  C   C34       1.0  0.23267  0.73966  0.74103  1.0000
  C  Sn5       1.0  0.28570  0.77589  0.67876  1.0000
  C  Sn6       1.0  0.32211  0.74497  0.64727  1.0000
  C   C35       1.0  0.30450  0.67852  0.67882  1.0000
  C   C36       1.0  0.25137  0.64274  0.74120  1.0000
  H   H17       1.0  0.17436  0.64558  0.82045  1.0000
  O  Te5       1.0  0.30220  0.84217  0.64829  1.0000
  O  Te6       1.0  0.37531  0.78001  0.58496  1.0000
  H   H18       1.0  0.23805  0.59134  0.76527  1.0000
  Mg  Mg3       1.0  0.37875  0.86919  0.56348  1.0000
  C   C37       1.0  0.44175  0.68050  0.75140  1.0000
  C   C38       1.0  0.36291  0.65168  0.70797  1.0000
  C  Sn7       1.0  0.31169  0.57866  0.68011  1.0000
  C  Sn8       1.0  0.34012  0.53381  0.69616  1.0000
  C   C39       1.0  0.41911  0.56316  0.73979  1.0000
  C   C40       1.0  0.46984  0.63630  0.76733  1.0000
  H   H19       1.0  0.48102  0.73709  0.77281  1.0000
  O  Te7       1.0  0.23309  0.55075  0.63674  1.0000
  O  Te8       1.0  0.29021  0.46065  0.66909  1.0000
  H   H20       1.0  0.53090  0.65860  0.80107  1.0000
  Mg  Mg4       1.0  0.18796  0.44774  0.61248  1.0000
  C   C41       1.0  0.84558  0.04050  0.77676  1.0000
  C   C42       1.0  0.77150  0.99311  0.76147  1.0000
  C  Sn9       1.0  0.71884  0.01402  0.72823  1.0000
  C  Sn10      1.0  0.23731  0.08370  0.70997  1.0000
  C   C43       1.0  0.31154  0.13069  0.72536  1.0000
  C   C44       1.0  0.36379  0.10922  0.75870  1.0000
  H   H21       1.0  0.88599  0.02388  0.80245  1.0000
  O  Te9       1.0  0.64506  0.96601  0.71340  1.0000
  O  Te10      1.0  0.18581  0.10597  0.67664  1.0000
  H   H22       1.0  0.42112  0.14591  0.77042  1.0000
  Mg  Mg5       1.0  0.59542  0.02125  0.66745  1.0000
  C   C45       1.0  0.35882  0.30417  0.80737  1.0000
  C   C46       1.0  0.41865  0.34577  0.76686  1.0000
  C  Sn11      1.0  0.44685  0.31480  0.70375  1.0000
  C  Sn12      1.0  0.41441  0.24079  0.68086  1.0000
  C   C47       1.0  0.35453  0.19962  0.72165  1.0000
  C   C48       1.0  0.32677  0.23116  0.78477  1.0000
  H   H23       1.0  0.33730  0.32856  0.85612  1.0000
  O  Te11      1.0  0.50667  0.35714  0.66399  1.0000
  O  Te12      1.0  0.44148  0.20846  0.61794  1.0000
  H   H24       1.0  0.28040  0.19893  0.81601  1.0000
  Mg  Mg6       1.0  0.52391  0.28855  0.58212  1.0000
  C   C49       1.0  0.98210  0.68233  0.32300  1.0000
  C   C50       1.0  0.01589  0.74366  0.26763  1.0000
  C  Sn13      1.0  0.97865  0.78082  0.20908  1.0000
  C  Sn14      1.0  0.90626  0.75600  0.20611  1.0000
  C   C51       1.0  0.87297  0.69462  0.26189  1.0000
  C   C52       1.0  0.91071  0.65783  0.32018  1.0000
  H   H25       1.0  0.01132  0.65388  0.36819  1.0000
  O  Te13      1.0  0.01321  0.84198  0.15416  1.0000
  O  Te14      1.0  0.86780  0.79214  0.14828  1.0000
  H   H26       1.0  0.88456  0.61037  0.36315  1.0000
  Mg  Mg7       1.0  0.93826  0.87284  0.08652  1.0000
  C   C53       1.0  0.74847  0.68547  0.27217  1.0000
  C   C54       1.0  0.78989  0.65897  0.25330  1.0000
  C  Sn15      1.0  0.75528  0.58550  0.20837  1.0000
  C  Sn16      1.0  0.67774  0.53782  0.18188  1.0000
  C   C55       1.0  0.63676  0.56486  0.20095  1.0000
  C   C56       1.0  0.67197  0.63847  0.24600  1.0000
  H   H27       1.0  0.77568  0.74242  0.30693  1.0000
  O  Te15      1.0  0.79751  0.55993  0.19011  1.0000
  O  Te16      1.0  0.64172  0.46415  0.13683  1.0000
  H   H28       1.0  0.63986  0.65897  0.26049  1.0000
  Mg  Mg8       1.0  0.72319  0.45513  0.12721  1.0000
  C   C57       1.0  0.34899  0.77505  0.23741  1.0000
  C   C58       1.0  0.32237  0.70369  0.23050  1.0000
  C  Sn17      1.0  0.24651  0.65535  0.20553  1.0000
  C  Sn18      1.0  0.19651  0.67905  0.18714  1.0000
  C   C59       1.0  0.22368  0.75054  0.19412  1.0000
  C   C60       1.0  0.29970  0.79846  0.21921  1.0000
  H   H29       1.0  0.40779  0.81213  0.25672  1.0000
  O  Te17      1.0  0.22086  0.58425  0.19902  1.0000
  O  Te18      1.0  0.12041  0.63186  0.16199  1.0000
  H   H30       1.0  0.32028  0.85370  0.22444  1.0000
  Mg  Mg9       1.0  0.11230  0.54023  0.16239  1.0000
  C   C61       1.0  0.42115  0.67284  0.16271  1.0000
  C   C62       1.0  0.36124  0.65396  0.20276  1.0000
  C  Sn19      1.0  0.33333  0.59408  0.26766  1.0000
  C  Sn20      1.0  0.36614  0.55244  0.29284  1.0000
  C   C63       1.0  0.42609  0.57180  0.25250  1.0000
  C   C64       1.0  0.45356  0.63181  0.18757  1.0000
  H   H31       1.0  0.44244  0.71929  0.11257  1.0000
  O  Te19      1.0  0.27342  0.57596  0.30694  1.0000
  O  Te20      1.0  0.33937  0.49234  0.35759  1.0000
  H   H32       1.0  0.49998  0.64644  0.15669  1.0000
  Mg  Mg10      1.0  0.25668  0.48929  0.39187  1.0000
  C   C65       1.0  0.33212  0.06969  0.17907  1.0000
  C   C66       1.0  0.31640  0.11877  0.21525  1.0000
  C  Sn21      1.0  0.26349  0.10051  0.27802  1.0000
  C  Sn22      1.0  0.72934  0.03180  0.30497  1.0000
  C   C67       1.0  0.74552  0.98310  0.26850  1.0000
  C   C68       1.0  0.79854  0.00192  0.20569  1.0000
  H   H33       1.0  0.37318  0.08426  0.13057  1.0000
  O  Te21      1.0  0.24843  0.15019  0.31343  1.0000
  O  Te22      1.0  0.67623  0.01217  0.36765  1.0000
  H   H34       1.0  0.81075  0.96392  0.17780  1.0000
  Mg  Mg11      1.0  0.17142  0.09839  0.39675  1.0000
  C   C69       1.0  0.46616  0.30224  0.27972  1.0000
  C   C70       1.0  0.43455  0.34416  0.24330  1.0000
  C  Sn23      1.0  0.35692  0.31586  0.20786  1.0000
  C  Sn24      1.0  0.31021  0.24426  0.20905  1.0000
  C   C71       1.0  0.34240  0.20279  0.24577  1.0000
  C   C72       1.0  0.42015  0.23163  0.28100  1.0000
  H   H35       1.0  0.52633  0.32456  0.30708  1.0000
  O  Te23      1.0  0.32625  0.35847  0.17166  1.0000
  O  Te24      1.0  0.23245  0.21465  0.17415  1.0000
  H   H36       1.0  0.44462  0.19917  0.30931  1.0000
  Mg  Mg12      1.0  0.21717  0.29400  0.13209  1.0000
