data_image0
_chemical_formula_structural       C6H3C6H3C3HC2HCH2C3HC2HC4HC2HCH4C6H3C6H3C3HC2HCH2C3HC2HC4HC2HCH4SnCSn2CSnTe4Mg2SnCSn2CSnTe4Mg2SnCSn2CSnTe4Mg2SnCSn2CSnTe4Mg2SnCSn2CSnTe4Mg2SnCSn2CSnTe4Mg2
_chemical_formula_sum              "C72 H36 Sn24 Te24 Mg12"
_cell_length_a       22.4991
_cell_length_b       22.5416
_cell_length_c       8.47436
_cell_angle_alpha    88.6882
_cell_angle_beta     117.538
_cell_angle_gamma    120.176

_symmetry_space_group_name_H-M    'P1'
_space_group_IT_number       1

loop_
  _space_group_symop_operation_xyz
  'x, y, z'

loop_
  _atom_site_type_symbol
  _atom_site_label
  _atom_site_symmetry_multiplicity
  _atom_site_fract_x
  _atom_site_fract_y
  _atom_site_fract_z
  _atom_site_occupancy
  C   C1        1.0  0.57167  0.53544  0.72522  1.0000
  C   C2        1.0  0.53832  0.46500  0.73853  1.0000
  C   C3        1.0  0.46615  0.42700  0.73820  1.0000
  C   C4        1.0  0.42943  0.46262  0.73427  1.0000
  C   C5        1.0  0.46184  0.53377  0.72623  1.0000
  C   C6        1.0  0.53158  0.56837  0.71553  1.0000
  H   H1        1.0  0.57003  0.43952  0.75423  1.0000
  H   H2        1.0  0.37472  0.43421  0.73884  1.0000
  H   H3        1.0  0.55432  0.62146  0.69534  1.0000
  C   C7        1.0  0.10148  0.80015  0.76092  1.0000
  C   C8        1.0  0.13448  0.76307  0.74795  1.0000
  C   C9        1.0  0.20408  0.79586  0.73726  1.0000
  C   C10       1.0  0.23967  0.86775  0.73529  1.0000
  C   C11       1.0  0.20868  0.90693  0.74829  1.0000
  C   C12       1.0  0.14081  0.87256  0.76576  1.0000
  H   H4        1.0  0.10363  0.70666  0.73967  1.0000
  H   H5        1.0  0.29159  0.89340  0.71969  1.0000
  H   H6        1.0  0.11899  0.90307  0.78745  1.0000
  C   C13       1.0  0.02569  0.76323  0.76190  1.0000
  C   C14       1.0  0.99658  0.69752  0.80497  1.0000
  C   C15       1.0  0.90538  0.75549  0.70834  1.0000
  H   H7        1.0  0.03283  0.67516  0.84990  1.0000
  C   C16       1.0  0.97803  0.79125  0.71350  1.0000
  C   C17       1.0  0.92323  0.66111  0.79640  1.0000
  H   H8        1.0  0.99677  0.84068  0.67291  1.0000
  C   C18       1.0  0.87540  0.68900  0.74713  1.0000
  H   H9        1.0  0.90358  0.61114  0.83423  1.0000
  H   H10       1.0  0.86961  0.77828  0.66670  1.0000
  C   C19       1.0  0.24636  0.98252  0.74435  1.0000
  C   C20       1.0  0.32492  0.02405  0.77623  1.0000
  C   C21       1.0  0.24212  0.08877  0.71624  1.0000
  H   H11       1.0  0.35932  0.00035  0.80395  1.0000
  C   C22       1.0  0.20580  0.01699  0.71260  1.0000
  C   C23       1.0  0.36105  0.09566  0.77782  1.0000
  H   H12       1.0  0.14442  0.98716  0.68379  1.0000
  C   C24       1.0  0.32082  0.13015  0.74912  1.0000
  C   C25       1.0  0.35860  0.20578  0.74920  1.0000
  C   C26       1.0  0.41481  0.23743  0.69242  1.0000
  C   C27       1.0  0.37439  0.32003  0.80217  1.0000
  H   H13       1.0  0.42868  0.20507  0.64150  1.0000
  C   C28       1.0  0.33910  0.24880  0.80370  1.0000
  C   C29       1.0  0.44952  0.30853  0.68955  1.0000
  H   H14       1.0  0.29815  0.22704  0.85485  1.0000
  C   C30       1.0  0.43026  0.35174  0.74444  1.0000
  H   H15       1.0  0.48964  0.32980  0.63621  1.0000
  H   H16       1.0  0.42230  0.12591  0.80534  1.0000
  H   H17       1.0  0.36015  0.35200  0.85296  1.0000
  H   H18       1.0  0.20848  0.11315  0.69025  1.0000
  C   C31       1.0  0.56865  0.53574  0.22535  1.0000
  C   C32       1.0  0.53291  0.46465  0.23338  1.0000
  C   C33       1.0  0.46182  0.42816  0.23812  1.0000
  C   C34       1.0  0.42638  0.46505  0.23382  1.0000
  C   C35       1.0  0.46018  0.53624  0.22645  1.0000
  C   C36       1.0  0.53113  0.57050  0.22178  1.0000
  H   H19       1.0  0.56157  0.43741  0.23669  1.0000
  H   H20       1.0  0.37150  0.43819  0.23739  1.0000
  H   H21       1.0  0.55783  0.62552  0.21614  1.0000
  C   C37       1.0  0.09826  0.79904  0.25779  1.0000
  C   C38       1.0  0.13218  0.76288  0.24446  1.0000
  C   C39       1.0  0.20092  0.79654  0.23002  1.0000
  C   C40       1.0  0.23629  0.86876  0.23147  1.0000
  C   C41       1.0  0.20475  0.90712  0.24621  1.0000
  C   C42       1.0  0.13578  0.87116  0.25950  1.0000
  H   H22       1.0  0.10367  0.70710  0.24303  1.0000
  H   H23       1.0  0.28866  0.89555  0.21763  1.0000
  H   H24       1.0  0.11089  0.90010  0.27195  1.0000
  C   C43       1.0  0.02331  0.76173  0.26283  1.0000
  C   C44       1.0  0.99599  0.69705  0.31139  1.0000
  C   C45       1.0  0.90287  0.75329  0.21077  1.0000
  H   H25       1.0  0.03306  0.67544  0.35811  1.0000
  C   C46       1.0  0.97501  0.78916  0.21392  1.0000
  C   C47       1.0  0.92321  0.66075  0.30602  1.0000
  H   H26       1.0  0.99257  0.83807  0.17086  1.0000
  C   C48       1.0  0.87415  0.68747  0.25341  1.0000
  H   H27       1.0  0.90500  0.61173  0.34865  1.0000
  H   H28       1.0  0.86650  0.77551  0.16807  1.0000
  C   C49       1.0  0.23600  0.75750  0.21669  1.0000
  C   C50       1.0  0.19641  0.68321  0.19086  1.0000
  C   C51       1.0  0.34873  0.75831  0.23859  1.0000
  H   H29       1.0  0.13632  0.65210  0.16988  1.0000
  C   C52       1.0  0.31266  0.79358  0.23733  1.0000
  C   C53       1.0  0.23263  0.64785  0.19322  1.0000
  H   H30       1.0  0.34602  0.85082  0.25633  1.0000
  C   C54       1.0  0.31019  0.68454  0.21941  1.0000
  C   C55       1.0  0.34863  0.64726  0.22226  1.0000
  C   C56       1.0  0.32964  0.58430  0.27914  1.0000
  C   C57       1.0  0.44128  0.63740  0.16857  1.0000
  H   H31       1.0  0.28846  0.56411  0.32967  1.0000
  C   C58       1.0  0.40552  0.67301  0.16759  1.0000
  C   C59       1.0  0.36603  0.54918  0.28165  1.0000
  H   H32       1.0  0.41955  0.72001  0.11620  1.0000
  C   C60       1.0  0.42239  0.57436  0.22548  1.0000
  H   H33       1.0  0.35228  0.50259  0.33456  1.0000
  H   H34       1.0  0.19962  0.59037  0.17193  1.0000
  H   H35       1.0  0.48226  0.65786  0.11763  1.0000
  H   H36       1.0  0.40852  0.78866  0.25757  1.0000
  C  Sn1       1.0  0.32277  0.53311  0.63974  1.0000
  C   C61       1.0  0.40013  0.56260  0.67179  1.0000
  C  Sn2       1.0  0.45721  0.63613  0.74451  1.0000
  C  Sn3       1.0  0.43656  0.68113  0.78617  1.0000
  C   C62       1.0  0.35925  0.65165  0.75416  1.0000
  C  Sn4       1.0  0.30212  0.57812  0.68141  1.0000
  O  Te1       1.0  0.26667  0.45946  0.56697  1.0000
  O  Te2       1.0  0.53415  0.66436  0.77530  1.0000
  O  Te3       1.0  0.49273  0.75483  0.85900  1.0000
  O  Te4       1.0  0.22523  0.54988  0.65065  1.0000
  Mg  Mg1       1.0  0.58966  0.76798  0.87656  1.0000
  Mg  Mg2       1.0  0.16968  0.44627  0.54948  1.0000
  C  Sn5       1.0  0.34287  0.30128  0.26544  1.0000
  C   C63       1.0  0.41875  0.34870  0.28940  1.0000
  C  Sn6       1.0  0.46107  0.32319  0.27119  1.0000
  C  Sn7       1.0  0.42682  0.24874  0.22802  1.0000
  C   C64       1.0  0.35098  0.20137  0.20405  1.0000
  C  Sn8       1.0  0.30862  0.22683  0.22226  1.0000
  O  Te5       1.0  0.30164  0.32797  0.28428  1.0000
  O  Te6       1.0  0.53685  0.37163  0.29585  1.0000
  O  Te7       1.0  0.46813  0.22207  0.20920  1.0000
  O  Te8       1.0  0.23289  0.17844  0.19760  1.0000
  Mg  Mg3       1.0  0.56949  0.30928  0.25576  1.0000
  Mg  Mg4       1.0  0.20018  0.24072  0.23757  1.0000
  C  Sn9       1.0  0.23816  0.68970  0.82525  1.0000
  C   C65       1.0  0.25003  0.75246  0.77486  1.0000
  C  Sn10      1.0  0.28493  0.77725  0.66757  1.0000
  C  Sn11      1.0  0.30841  0.73848  0.60931  1.0000
  C   C66       1.0  0.29652  0.67575  0.65966  1.0000
  C  Sn12      1.0  0.26164  0.65093  0.76699  1.0000
  O  Te9       1.0  0.20316  0.66591  0.93257  1.0000
  O  Te10      1.0  0.29622  0.84015  0.61898  1.0000
  O  Te11      1.0  0.34344  0.76233  0.50191  1.0000
  O  Te12      1.0  0.25034  0.58807  0.81555  1.0000
  Mg  Mg5       1.0  0.34632  0.85087  0.47104  1.0000
  Mg  Mg6       1.0  0.20021  0.57728  0.96339  1.0000
  C  Sn13      1.0  0.20694  0.03490  0.24457  1.0000
  C   C67       1.0  0.72549  0.98613  0.20211  1.0000
  C  Sn14      1.0  0.79243  0.00959  0.18612  1.0000
  C  Sn15      1.0  0.34198  0.08334  0.21325  1.0000
  C   C68       1.0  0.32703  0.13207  0.25571  1.0000
  C  Sn16      1.0  0.26009  0.10866  0.27169  1.0000
  O  Te13      1.0  0.64326  0.01026  0.25988  1.0000
  O  Te14      1.0  0.80610  0.95981  0.14350  1.0000
  O  Te15      1.0  0.40930  0.10796  0.19789  1.0000
  O  Te16      1.0  0.24642  0.15839  0.31432  1.0000
  Mg  Mg7       1.0  0.40232  0.01952  0.13760  1.0000
  Mg  Mg8       1.0  0.14664  0.09875  0.32035  1.0000
  C  Sn17      1.0  0.69619  0.65948  0.21488  1.0000
  C   C69       1.0  0.64372  0.58614  0.18039  1.0000
  C  Sn18      1.0  0.66931  0.54051  0.18802  1.0000
  C  Sn19      1.0  0.74902  0.56877  0.23114  1.0000
  C   C70       1.0  0.80144  0.64207  0.26563  1.0000
  C  Sn20      1.0  0.77590  0.68774  0.25800  1.0000
  O  Te17      1.0  0.66932  0.70410  0.20650  1.0000
  O  Te18      1.0  0.61575  0.46738  0.15295  1.0000
  O  Te19      1.0  0.77585  0.52408  0.23948  1.0000
  O  Te20      1.0  0.82941  0.76083  0.29307  1.0000
  Mg  Mg9       1.0  0.68055  0.42829  0.18102  1.0000
  Mg  Mg10      1.0  0.76469  0.79998  0.26513  1.0000
  C  Sn21      1.0  0.72276  0.56242  0.63412  1.0000
  C   C71       1.0  0.77800  0.63611  0.68433  1.0000
  C  Sn22      1.0  0.77319  0.68264  0.77648  1.0000
  C  Sn23      1.0  0.71191  0.65494  0.81944  1.0000
  C   C72       1.0  0.65672  0.58129  0.76926  1.0000
  C  Sn24      1.0  0.66148  0.53471  0.67708  1.0000
  O  Te21      1.0  0.72871  0.51690  0.54209  1.0000
  O  Te22      1.0  0.82909  0.75611  0.82521  1.0000
  O  Te23      1.0  0.70600  0.70053  0.91153  1.0000
  O  Te24      1.0  0.60563  0.46129  0.62839  1.0000
  Mg  Mg11      1.0  0.79616  0.79647  0.94909  1.0000
  Mg  Mg12      1.0  0.63853  0.42087  0.50459  1.0000
