data_image0
_chemical_formula_structural       ONC3H2ONC3H2ONC3H2ONC3H2ONC3H2ONC3H2ONC6H4ONC6H4ONC6H4ONC6H4ONC6H4ONC6H4C2Sn2C2HTe2HMgC2Sn2C2HTe2HMgC2Sn2C2HTe2HMg
_chemical_formula_sum              "O12 N12 C66 H42 Sn6 Te6 Mg3"
_cell_length_a       22.4022
_cell_length_b       22.7172
_cell_length_c       8.03278
_cell_angle_alpha    123.044
_cell_angle_beta     85.5886
_cell_angle_gamma    120.122

_symmetry_space_group_name_H-M    'P1'
_space_group_IT_number       1

loop_
  _space_group_symop_operation_xyz
  'x, y, z'

loop_
  _atom_site_type_symbol
  _atom_site_label
  _atom_site_symmetry_multiplicity
  _atom_site_fract_x
  _atom_site_fract_y
  _atom_site_fract_z
  _atom_site_occupancy
  O   O1        1.0  0.28834  0.52382  0.22830  1.0000
  N   N1        1.0  0.41539  0.55302  0.23819  1.0000
  C   C1        1.0  0.31026  0.58827  0.23231  1.0000
  C   C2        1.0  0.38384  0.63864  0.23560  1.0000
  C   C3        1.0  0.43318  0.61924  0.24048  1.0000
  H   H1        1.0  0.48797  0.65978  0.24633  1.0000
  H   H2        1.0  0.36088  0.52084  0.23454  1.0000
  O   O2        1.0  0.47441  0.75498  0.23992  1.0000
  N   N2        1.0  0.44562  0.85046  0.22799  1.0000
  C   C4        1.0  0.40952  0.71160  0.23547  1.0000
  C   C5        1.0  0.35891  0.73321  0.23128  1.0000
  C   C6        1.0  0.37934  0.80113  0.22735  1.0000
  H   H3        1.0  0.33904  0.81432  0.22464  1.0000
  H   H4        1.0  0.47886  0.83099  0.23209  1.0000
  O   O3        1.0  0.24310  0.70919  0.24198  1.0000
  N   N3        1.0  0.14430  0.58667  0.25176  1.0000
  C   C7        1.0  0.28537  0.68646  0.23616  1.0000
  C   C8        1.0  0.26205  0.61424  0.23598  1.0000
  C   C9        1.0  0.19325  0.56872  0.24663  1.0000
  H   H5        1.0  0.17957  0.51685  0.25258  1.0000
  H   H6        1.0  0.16589  0.63970  0.25159  1.0000
  O   O4        1.0  0.71119  0.47072  0.27484  1.0000
  N   N4        1.0  0.58400  0.43795  0.25213  1.0000
  C   C10       1.0  0.68964  0.40613  0.27039  1.0000
  C   C11       1.0  0.61563  0.35362  0.26047  1.0000
  C   C12       1.0  0.56591  0.37218  0.25218  1.0000
  H   H7        1.0  0.51097  0.33159  0.24537  1.0000
  H   H8        1.0  0.63899  0.47050  0.25920  1.0000
  O   O5        1.0  0.52556  0.23435  0.24701  1.0000
  N   N5        1.0  0.55708  0.14243  0.26830  1.0000
  C   C13       1.0  0.59077  0.28017  0.25791  1.0000
  C   C14       1.0  0.64268  0.26037  0.26553  1.0000
  C   C15       1.0  0.62322  0.19263  0.26939  1.0000
  H   H9        1.0  0.66441  0.18093  0.27414  1.0000
  H   H10       1.0  0.52293  0.16020  0.26011  1.0000
  O   O6        1.0  0.76053  0.28912  0.26623  1.0000
  N   N6        1.0  0.85887  0.41625  0.27039  1.0000
  C   C16       1.0  0.71689  0.30967  0.26774  1.0000
  C   C17       1.0  0.73919  0.38257  0.27209  1.0000
  C   C18       1.0  0.80852  0.43161  0.27035  1.0000
  H   H11       1.0  0.82134  0.48392  0.26736  1.0000
  H   H12       1.0  0.83767  0.36248  0.26711  1.0000
  O   O7        1.0  0.28841  0.52971  0.72823  1.0000
  N   N7        1.0  0.41499  0.55966  0.73932  1.0000
  C   C19       1.0  0.31010  0.59409  0.73195  1.0000
  C   C20       1.0  0.38363  0.64534  0.73683  1.0000
  C   C21       1.0  0.43302  0.62578  0.74088  1.0000
  C   C22       1.0  0.45832  0.53225  0.74168  1.0000
  C   C23       1.0  0.42629  0.45913  0.73399  1.0000
  C   C24       1.0  0.53115  0.57287  0.74704  1.0000
  H   H13       1.0  0.36984  0.42751  0.72978  1.0000
  H   H14       1.0  0.48777  0.66587  0.74559  1.0000
  H   H15       1.0  0.55699  0.62858  0.74927  1.0000
  H   H16       1.0  0.36043  0.52791  0.73666  1.0000
  O   O8        1.0  0.47391  0.76381  0.74840  1.0000
  N   N8        1.0  0.44321  0.85738  0.73244  1.0000
  C   C25       1.0  0.40891  0.71905  0.74038  1.0000
  C   C26       1.0  0.35752  0.73998  0.73663  1.0000
  C   C27       1.0  0.37718  0.80755  0.73199  1.0000
  C   C28       1.0  0.46886  0.92872  0.73710  1.0000
  C   C29       1.0  0.54264  0.97817  0.76230  1.0000
  C   C30       1.0  0.42447  0.95356  0.72210  1.0000
  H   H17       1.0  0.57700  0.95906  0.77493  1.0000
  H   H18       1.0  0.33632  0.81969  0.72736  1.0000
  H   H19       1.0  0.36700  0.91556  0.69844  1.0000
  H   H20       1.0  0.47730  0.83938  0.73980  1.0000
  O   O9        1.0  0.24155  0.71567  0.75262  1.0000
  N   N9        1.0  0.14308  0.58968  0.75190  1.0000
  C   C31       1.0  0.28407  0.69275  0.74188  1.0000
  C   C32       1.0  0.26136  0.61945  0.73603  1.0000
  C   C33       1.0  0.19240  0.57199  0.74263  1.0000
  C   C34       1.0  0.07263  0.54644  0.76011  1.0000
  C   C35       1.0  0.03049  0.57811  0.77819  1.0000
  C   C36       1.0  0.04192  0.47244  0.74754  1.0000
  H   H21       1.0  0.05406  0.63565  0.78904  1.0000
  H   H22       1.0  0.17894  0.51863  0.74162  1.0000
  H   H23       1.0  0.07336  0.44697  0.73629  1.0000
  H   H24       1.0  0.16438  0.64399  0.75754  1.0000
  O   O10       1.0  0.71103  0.47612  0.77456  1.0000
  N   N10       1.0  0.58258  0.44239  0.74701  1.0000
  C   C37       1.0  0.68923  0.41157  0.77039  1.0000
  C   C38       1.0  0.61503  0.35950  0.76064  1.0000
  C   C39       1.0  0.56500  0.37729  0.74967  1.0000
  C   C40       1.0  0.53875  0.46858  0.74040  1.0000
  C   C41       1.0  0.57057  0.54113  0.74595  1.0000
  C   C42       1.0  0.46575  0.42743  0.73321  1.0000
  H   H25       1.0  0.62683  0.57224  0.74818  1.0000
  H   H26       1.0  0.51012  0.33634  0.74241  1.0000
  H   H27       1.0  0.43979  0.37135  0.72963  1.0000
  H   H28       1.0  0.63742  0.47524  0.75441  1.0000
  O   O11       1.0  0.52447  0.24194  0.75237  1.0000
  N   N11       1.0  0.55414  0.14847  0.76915  1.0000
  C   C43       1.0  0.58965  0.28656  0.76065  1.0000
  C   C44       1.0  0.64100  0.26626  0.76870  1.0000
  C   C45       1.0  0.62056  0.19799  0.77114  1.0000
  C   C46       1.0  0.52785  0.07661  0.76222  1.0000
  C   C47       1.0  0.45408  0.02721  0.73676  1.0000
  C   C48       1.0  0.57212  0.05138  0.77548  1.0000
  H   H29       1.0  0.41970  0.04645  0.72524  1.0000
  H   H30       1.0  0.66094  0.18508  0.77448  1.0000
  H   H31       1.0  0.62954  0.08908  0.79779  1.0000
  H   H32       1.0  0.52088  0.16762  0.76306  1.0000
  O   O12       1.0  0.75804  0.29291  0.76675  1.0000
  N   N12       1.0  0.85739  0.41846  0.76863  1.0000
  C   C49       1.0  0.71510  0.31437  0.76905  1.0000
  C   C50       1.0  0.73826  0.38722  0.77213  1.0000
  C   C51       1.0  0.80789  0.43521  0.77014  1.0000
  C   C52       1.0  0.92844  0.46232  0.76564  1.0000
  C   C53       1.0  0.97082  0.43122  0.75034  1.0000
  C   C54       1.0  0.95948  0.53696  0.78132  1.0000
  H   H33       1.0  0.94748  0.37416  0.74168  1.0000
  H   H34       1.0  0.82168  0.48805  0.76810  1.0000
  H   H35       1.0  0.92844  0.56324  0.79573  1.0000
  H   H36       1.0  0.83539  0.36424  0.76402  1.0000
  C   C55       1.0  0.08733  0.03123  0.27893  1.0000
  C   C56       1.0  0.54442  0.06511  0.25775  1.0000
  C  Sn1       1.0  0.97945  0.02727  0.23239  1.0000
  C  Sn2       1.0  0.93903  0.95419  0.22827  1.0000
  C   C57       1.0  0.97357  0.92083  0.24974  1.0000
  C   C58       1.0  0.04751  0.95917  0.27497  1.0000
  H   H37       1.0  0.14455  0.06093  0.29857  1.0000
  O  Te1       1.0  0.43741  0.06192  0.21137  1.0000
  O  Te2       1.0  0.86514  0.91513  0.20320  1.0000
  H   H38       1.0  0.07384  0.93296  0.29150  1.0000
  Mg  Mg1       1.0  0.84435  0.98598  0.18081  1.0000
  C   C59       1.0  0.01415  0.57392  0.27612  1.0000
  C   C60       1.0  0.06547  0.55590  0.27433  1.0000
  C  Sn3       1.0  0.04653  0.48425  0.25992  1.0000
  C  Sn4       1.0  0.97484  0.42973  0.24704  1.0000
  C   C61       1.0  0.92389  0.44829  0.24881  1.0000
  C   C62       1.0  0.94343  0.52017  0.26335  1.0000
  H   H39       1.0  0.02925  0.62951  0.28725  1.0000
  O  Te3       1.0  0.09848  0.46719  0.25840  1.0000
  O  Te4       1.0  0.95446  0.35768  0.23244  1.0000
  H   H40       1.0  0.90367  0.53408  0.26460  1.0000
  Mg  Mg2       1.0  0.04456  0.36135  0.23623  1.0000
  C   C63       1.0  0.57092  0.55170  0.24573  1.0000
  C   C64       1.0  0.55094  0.48538  0.25761  1.0000
  C  Sn5       1.0  0.48022  0.43490  0.25118  1.0000
  C  Sn6       1.0  0.42867  0.45127  0.23245  1.0000
  C   C65       1.0  0.44919  0.51774  0.22053  1.0000
  C   C66       1.0  0.52011  0.56787  0.22718  1.0000
  H   H41       1.0  0.62578  0.59047  0.25076  1.0000
  O  Te5       1.0  0.46117  0.36891  0.26331  1.0000
  O  Te6       1.0  0.35762  0.40179  0.22558  1.0000
  H   H42       1.0  0.53555  0.61919  0.21784  1.0000
  Mg  Mg3       1.0  0.35773  0.31915  0.24752  1.0000
