data_image0
_chemical_formula_structural       ONC3H2ONC3H2ONC3H2ONC3H2ONC3H2ONC3H2ONC3H2ONC3H2ONC3H2ONC3H2ONC3H2ONC3H2SnCSn2CSnTe4Mg2SnCSn2CSnTe4Mg2SnCSn2CSnTe4Mg2SnCSn2CSnTe4Mg2SnCSn2CSnTe4Mg2SnCSn2CSnTe4Mg2
_chemical_formula_sum              "O12 N12 C48 H24 Sn24 Te24 Mg12"
_cell_length_a       22.4022
_cell_length_b       22.7172
_cell_length_c       8.03278
_cell_angle_alpha    123.044
_cell_angle_beta     85.5886
_cell_angle_gamma    120.122

_symmetry_space_group_name_H-M    'P1'
_space_group_IT_number       1

loop_
  _space_group_symop_operation_xyz
  'x, y, z'

loop_
  _atom_site_type_symbol
  _atom_site_label
  _atom_site_symmetry_multiplicity
  _atom_site_fract_x
  _atom_site_fract_y
  _atom_site_fract_z
  _atom_site_occupancy
  O   O1        1.0  0.28834  0.52382  0.22830  1.0000
  N   N1        1.0  0.41539  0.55302  0.23819  1.0000
  C   C1        1.0  0.31026  0.58827  0.23231  1.0000
  C   C2        1.0  0.38384  0.63864  0.23560  1.0000
  C   C3        1.0  0.43318  0.61924  0.24048  1.0000
  H   H1        1.0  0.48797  0.65978  0.24633  1.0000
  H   H2        1.0  0.36088  0.52084  0.23454  1.0000
  O   O2        1.0  0.47441  0.75498  0.23992  1.0000
  N   N2        1.0  0.44562  0.85046  0.22799  1.0000
  C   C4        1.0  0.40952  0.71160  0.23547  1.0000
  C   C5        1.0  0.35891  0.73321  0.23128  1.0000
  C   C6        1.0  0.37934  0.80113  0.22735  1.0000
  H   H3        1.0  0.33904  0.81432  0.22464  1.0000
  H   H4        1.0  0.47886  0.83099  0.23209  1.0000
  O   O3        1.0  0.24310  0.70919  0.24198  1.0000
  N   N3        1.0  0.14430  0.58667  0.25176  1.0000
  C   C7        1.0  0.28537  0.68646  0.23616  1.0000
  C   C8        1.0  0.26205  0.61424  0.23598  1.0000
  C   C9        1.0  0.19325  0.56872  0.24663  1.0000
  H   H5        1.0  0.17957  0.51685  0.25258  1.0000
  H   H6        1.0  0.16589  0.63970  0.25159  1.0000
  O   O4        1.0  0.71119  0.47072  0.27484  1.0000
  N   N4        1.0  0.58400  0.43795  0.25213  1.0000
  C   C10       1.0  0.68964  0.40613  0.27039  1.0000
  C   C11       1.0  0.61563  0.35362  0.26047  1.0000
  C   C12       1.0  0.56591  0.37218  0.25218  1.0000
  H   H7        1.0  0.51097  0.33159  0.24537  1.0000
  H   H8        1.0  0.63899  0.47050  0.25920  1.0000
  O   O5        1.0  0.52556  0.23435  0.24701  1.0000
  N   N5        1.0  0.55708  0.14243  0.26830  1.0000
  C   C13       1.0  0.59077  0.28017  0.25791  1.0000
  C   C14       1.0  0.64268  0.26037  0.26553  1.0000
  C   C15       1.0  0.62322  0.19263  0.26939  1.0000
  H   H9        1.0  0.66441  0.18093  0.27414  1.0000
  H   H10       1.0  0.52293  0.16020  0.26011  1.0000
  O   O6        1.0  0.76053  0.28912  0.26623  1.0000
  N   N6        1.0  0.85887  0.41625  0.27039  1.0000
  C   C16       1.0  0.71689  0.30967  0.26774  1.0000
  C   C17       1.0  0.73919  0.38257  0.27209  1.0000
  C   C18       1.0  0.80852  0.43161  0.27035  1.0000
  H   H11       1.0  0.82134  0.48392  0.26736  1.0000
  H   H12       1.0  0.83767  0.36248  0.26711  1.0000
  O   O7        1.0  0.28841  0.52971  0.72823  1.0000
  N   N7        1.0  0.41499  0.55966  0.73932  1.0000
  C   C19       1.0  0.31010  0.59409  0.73195  1.0000
  C   C20       1.0  0.38363  0.64534  0.73683  1.0000
  C   C21       1.0  0.43302  0.62578  0.74088  1.0000
  H   H13       1.0  0.48777  0.66587  0.74559  1.0000
  H   H14       1.0  0.36043  0.52791  0.73666  1.0000
  O   O8        1.0  0.47391  0.76381  0.74840  1.0000
  N   N8        1.0  0.44321  0.85738  0.73244  1.0000
  C   C22       1.0  0.40891  0.71905  0.74038  1.0000
  C   C23       1.0  0.35752  0.73998  0.73663  1.0000
  C   C24       1.0  0.37718  0.80755  0.73199  1.0000
  H   H15       1.0  0.33632  0.81969  0.72736  1.0000
  H   H16       1.0  0.47730  0.83938  0.73980  1.0000
  O   O9        1.0  0.24155  0.71567  0.75262  1.0000
  N   N9        1.0  0.14308  0.58968  0.75190  1.0000
  C   C25       1.0  0.28407  0.69275  0.74188  1.0000
  C   C26       1.0  0.26136  0.61945  0.73603  1.0000
  C   C27       1.0  0.19240  0.57199  0.74263  1.0000
  H   H17       1.0  0.17894  0.51863  0.74162  1.0000
  H   H18       1.0  0.16438  0.64399  0.75754  1.0000
  O   O10       1.0  0.71103  0.47612  0.77456  1.0000
  N   N10       1.0  0.58258  0.44239  0.74701  1.0000
  C   C28       1.0  0.68923  0.41157  0.77039  1.0000
  C   C29       1.0  0.61503  0.35950  0.76064  1.0000
  C   C30       1.0  0.56500  0.37729  0.74967  1.0000
  H   H19       1.0  0.51012  0.33634  0.74241  1.0000
  H   H20       1.0  0.63742  0.47524  0.75441  1.0000
  O   O11       1.0  0.52447  0.24194  0.75237  1.0000
  N   N11       1.0  0.55414  0.14847  0.76915  1.0000
  C   C31       1.0  0.58965  0.28656  0.76065  1.0000
  C   C32       1.0  0.64100  0.26626  0.76870  1.0000
  C   C33       1.0  0.62056  0.19799  0.77114  1.0000
  H   H21       1.0  0.66094  0.18508  0.77448  1.0000
  H   H22       1.0  0.52088  0.16762  0.76306  1.0000
  O   O12       1.0  0.75804  0.29291  0.76675  1.0000
  N   N12       1.0  0.85739  0.41846  0.76863  1.0000
  C   C34       1.0  0.71510  0.31437  0.76905  1.0000
  C   C35       1.0  0.73826  0.38722  0.77213  1.0000
  C   C36       1.0  0.80789  0.43521  0.77014  1.0000
  H   H23       1.0  0.82168  0.48805  0.76810  1.0000
  H   H24       1.0  0.83539  0.36424  0.76402  1.0000
  C  Sn1       1.0  0.43683  0.45648  0.29569  1.0000
  C   C37       1.0  0.45920  0.52611  0.29605  1.0000
  C  Sn2       1.0  0.52349  0.56279  0.25034  1.0000
  C  Sn3       1.0  0.56630  0.52915  0.20315  1.0000
  C   C38       1.0  0.54393  0.45955  0.20277  1.0000
  C  Sn4       1.0  0.47964  0.42283  0.24850  1.0000
  O  Te1       1.0  0.37236  0.42081  0.34183  1.0000
  O  Te2       1.0  0.54474  0.63239  0.25174  1.0000
  O  Te3       1.0  0.63081  0.56488  0.15700  1.0000
  O  Te4       1.0  0.45838  0.35327  0.24708  1.0000
  Mg  Mg1       1.0  0.63688  0.65890  0.17863  1.0000
  Mg  Mg2       1.0  0.36624  0.32669  0.32006  1.0000
  C  Sn5       1.0  0.07922  0.01718  0.21023  1.0000
  C   C39       1.0  0.53617  0.05442  0.20990  1.0000
  C  Sn6       1.0  0.97670  0.02921  0.24077  1.0000
  C  Sn7       1.0  0.94175  0.96550  0.27278  1.0000
  C   C40       1.0  0.97590  0.92831  0.27314  1.0000
  C  Sn8       1.0  0.04427  0.95347  0.24224  1.0000
  O  Te5       1.0  0.63867  0.04337  0.17906  1.0000
  O  Te6       1.0  0.43473  0.06734  0.23971  1.0000
  O  Te7       1.0  0.87335  0.93933  0.30396  1.0000
  O  Te8       1.0  0.07734  0.91539  0.24332  1.0000
  Mg  Mg3       1.0  0.85039  0.01018  0.28918  1.0000
  Mg  Mg4       1.0  0.17059  0.97252  0.19398  1.0000
  C  Sn9       1.0  0.96881  0.53404  0.21944  1.0000
  C   C41       1.0  0.92974  0.46145  0.21296  1.0000
  C  Sn10      1.0  0.96485  0.43130  0.24793  1.0000
  C  Sn11      1.0  0.04060  0.47463  0.29038  1.0000
  C   C42       1.0  0.07964  0.54719  0.29688  1.0000
  C  Sn12      1.0  0.04457  0.57738  0.26190  1.0000
  O  Te9       1.0  0.93260  0.56305  0.18402  1.0000
  O  Te10      1.0  0.92463  0.35858  0.24057  1.0000
  O  Te11      1.0  0.07681  0.44555  0.32580  1.0000
  O  Te12      1.0  0.08475  0.65006  0.26927  1.0000
  Mg  Mg5       1.0  0.99845  0.34382  0.29937  1.0000
  Mg  Mg6       1.0  0.01099  0.66489  0.21061  1.0000
  C  Sn13      1.0  0.53827  0.55619  0.68481  1.0000
  C   C43       1.0  0.46652  0.52611  0.68603  1.0000
  C  Sn14      1.0  0.42976  0.46878  0.73440  1.0000
  C  Sn15      1.0  0.46548  0.44098  0.78271  1.0000
  C   C44       1.0  0.53719  0.47108  0.78151  1.0000
  C  Sn16      1.0  0.57398  0.52840  0.73312  1.0000
  O  Te13      1.0  0.57396  0.61348  0.63600  1.0000
  O  Te14      1.0  0.35804  0.43957  0.73454  1.0000
  O  Te15      1.0  0.42972  0.38365  0.83153  1.0000
  O  Te16      1.0  0.64566  0.55761  0.73300  1.0000
  Mg  Mg7       1.0  0.33237  0.36208  0.81118  1.0000
  Mg  Mg8       1.0  0.67139  0.63513  0.65649  1.0000
  C  Sn17      1.0  0.95511  0.02373  0.79384  1.0000
  C   C45       1.0  0.02655  0.07946  0.81712  1.0000
  C  Sn18      1.0  0.07542  0.05561  0.78085  1.0000
  C  Sn19      1.0  0.05241  0.97435  0.71992  1.0000
  C   C46       1.0  0.98101  0.91867  0.69664  1.0000
  C  Sn20      1.0  0.93210  0.94247  0.73291  1.0000
  O  Te17      1.0  0.90718  0.04891  0.83091  1.0000
  O  Te18      1.0  0.14657  0.11242  0.80520  1.0000
  O  Te19      1.0  0.10042  0.94920  0.68286  1.0000
  O  Te20      1.0  0.86100  0.88570  0.70856  1.0000
  Mg  Mg9       1.0  0.19169  0.04890  0.73664  1.0000
  Mg  Mg10      1.0  0.81582  0.94915  0.77697  1.0000
  C  Sn21      1.0  0.02090  0.44574  0.68466  1.0000
  C   C47       1.0  0.06100  0.52074  0.70205  1.0000
  C  Sn22      1.0  0.03671  0.57409  0.77281  1.0000
  C  Sn23      1.0  0.97098  0.55205  0.82745  1.0000
  C   C48       1.0  0.93093  0.47710  0.81009  1.0000
  C  Sn24      1.0  0.95517  0.42370  0.73930  1.0000
  O  Te21      1.0  0.04621  0.39336  0.61357  1.0000
  O  Te22      1.0  0.07772  0.64873  0.78882  1.0000
  O  Te23      1.0  0.94568  0.60451  0.89858  1.0000
  O  Te24      1.0  0.91420  0.34911  0.72332  1.0000
  Mg  Mg11      1.0  0.02069  0.69939  0.89370  1.0000
  Mg  Mg12      1.0  0.97120  0.29843  0.61856  1.0000
