data_image0
_chemical_formula_structural       C4NC4NC4NC4NZnC4H8BO2C5HCHO2BC4HCHCH2BO2C5HCHO2BC4HCHCH2C4HCHCH2BO2C5HCHO2BC4HCHCH2BO2C5HCHO2BC4HCHCH2C4NCNCHC2HCHCHC4NCNCHC2HCHCHZnC4NCNCHC2HCHCHC4NCNCHC2HCHCHZnBO2C5HCHO2BC4HCHCH2C4HCHCH2BO2C5HCHO2BC4NCNCHC2HCHCHC4NCNCHC2HCHCHC4HCHCH2BO2C5HCHO2BC4HCHCH2BO2C5HCHO2BZnC4NC4NC4NC4NZnC4H8BO2C5HCHO2BC4HCHCH2BO2C5HCHO2B2O2C5HCHO2BC4HCHCH2C4HCHCH2BO2C5HCHO2BC4HCHCH2C4NCNCHC2HCHCHC4NCNCHC2HCHCHZnC4NCNCHC2HCHCHC4NCNCHC2HCHCHZnBO2C5HCHO2BC4HCHCH2BO2C5HCHO2BC4NCNCHC2HCHCHC4NCNCHC2HCHCHBO2C5HCHO2BC4HCHCH2BO2C5HCHO2BC4HCHCH2ZnC2Sn2C2HTe2HMgC2Sn2C2HTe2HMgC2Sn2C2HTe2HMgC2Sn2C2HTe2HMgC2Sn2C2HTe2HMgC2Sn2C2HTe2HMgC2Sn2C2HTe2HMgC2Sn2C2HTe2HMgC2Sn2C2HTe2HMgC2Sn2C2HTe2HMgC2Sn2C2HTe2HMgC2Sn2C2HTe2HMgC2Sn2C2HTe2HMgC2Sn2C2HTe2HMgC2Sn2C2HTe2HMgC2Sn2C2HTe2HMg
_chemical_formula_sum              "C416 N32 Zn8 H192 B32 O64 Sn32 Te32 Mg16"
_cell_length_a       50.3585
_cell_length_b       50.366
_cell_length_c       8.13537
_cell_angle_alpha    89.3615
_cell_angle_beta     89.5823
_cell_angle_gamma    90.4433

_symmetry_space_group_name_H-M    'P1'
_space_group_IT_number       1

loop_
  _space_group_symop_operation_xyz
  'x, y, z'

loop_
  _atom_site_type_symbol
  _atom_site_label
  _atom_site_symmetry_multiplicity
  _atom_site_fract_x
  _atom_site_fract_y
  _atom_site_fract_z
  _atom_site_occupancy
  C   C1        1.0  0.47518  0.63973  0.16753  1.0000
  C   C2        1.0  0.45617  0.65900  0.16697  1.0000
  C   C3        1.0  0.46245  0.61526  0.22025  1.0000
  C   C4        1.0  0.43157  0.64660  0.21994  1.0000
  N   N1        1.0  0.43570  0.61977  0.24540  1.0000
  C   C5        1.0  0.46190  0.56641  0.27664  1.0000
  C   C6        1.0  0.47414  0.54168  0.32398  1.0000
  C   C7        1.0  0.45462  0.52260  0.32591  1.0000
  C   C8        1.0  0.43021  0.53539  0.27911  1.0000
  N   N2        1.0  0.43497  0.56225  0.25677  1.0000
  C   C9        1.0  0.38162  0.53595  0.21998  1.0000
  C   C10       1.0  0.35727  0.52374  0.16509  1.0000
  C   C11       1.0  0.33829  0.54302  0.16341  1.0000
  C   C12       1.0  0.35077  0.56725  0.21744  1.0000
  N   N3        1.0  0.37742  0.56268  0.24442  1.0000
  C   C13       1.0  0.35116  0.61571  0.27615  1.0000
  C   C14       1.0  0.33881  0.64026  0.32343  1.0000
  C   C15       1.0  0.35825  0.65938  0.32319  1.0000
  C   C16       1.0  0.38278  0.64675  0.27648  1.0000
  N   N4        1.0  0.37814  0.61994  0.25549  1.0000
  Zn  Zn1       1.0  0.40668  0.59107  0.25324  1.0000
  C   C17       1.0  0.33771  0.59154  0.24557  1.0000
  C   C18       1.0  0.40565  0.52250  0.25074  1.0000
  C   C19       1.0  0.47538  0.59075  0.24687  1.0000
  C   C20       1.0  0.40731  0.65988  0.24716  1.0000
  H   H1        1.0  0.31771  0.54091  0.12825  1.0000
  H   H2        1.0  0.35490  0.50315  0.13132  1.0000
  H   H3        1.0  0.45674  0.50175  0.35573  1.0000
  H   H4        1.0  0.49493  0.53909  0.35205  1.0000
  H   H5        1.0  0.49593  0.64200  0.13482  1.0000
  H   H6        1.0  0.45868  0.67970  0.13282  1.0000
  H   H7        1.0  0.35604  0.68017  0.35149  1.0000
  H   H8        1.0  0.31799  0.64274  0.35253  1.0000
  B   B1        1.0  0.59183  0.59169  0.22007  1.0000
  O   O1        1.0  0.60815  0.57396  0.13401  1.0000
  O   O2        1.0  0.60725  0.60981  0.30931  1.0000
  C   C21       1.0  0.63392  0.58078  0.17613  1.0000
  C   C22       1.0  0.63336  0.60257  0.28170  1.0000
  C   C23       1.0  0.65732  0.56856  0.12625  1.0000
  C   C24       1.0  0.65610  0.61411  0.34733  1.0000
  C   C25       1.0  0.68008  0.58008  0.19202  1.0000
  H   H9        1.0  0.65778  0.55193  0.04256  1.0000
  C   C26       1.0  0.67948  0.60189  0.29739  1.0000
  H   H10       1.0  0.65563  0.63062  0.43178  1.0000
  O   O3        1.0  0.70622  0.57270  0.16618  1.0000
  O   O4        1.0  0.70518  0.60858  0.34123  1.0000
  B   B2        1.0  0.72153  0.59061  0.25762  1.0000
  C   C27       1.0  0.75195  0.59081  0.26066  1.0000
  C   C28       1.0  0.76644  0.57121  0.17749  1.0000
  C   C29       1.0  0.76626  0.61079  0.34236  1.0000
  C   C30       1.0  0.79406  0.57159  0.17565  1.0000
  H   H11       1.0  0.75585  0.55593  0.11010  1.0000
  C   C31       1.0  0.79390  0.61108  0.34125  1.0000
  H   H12       1.0  0.75556  0.62595  0.40975  1.0000
  C   C32       1.0  0.80839  0.59150  0.25776  1.0000
  H   H13       1.0  0.80496  0.55687  0.10635  1.0000
  H   H14       1.0  0.80472  0.62616  0.40843  1.0000
  B   B3        1.0  0.40268  0.40621  0.25673  1.0000
  O   O5        1.0  0.38370  0.38945  0.33324  1.0000
  O   O6        1.0  0.42201  0.39132  0.17433  1.0000
  C   C33       1.0  0.39154  0.36387  0.29573  1.0000
  C   C34       1.0  0.41473  0.36505  0.19954  1.0000
  C   C35       1.0  0.37924  0.34008  0.34301  1.0000
  C   C36       1.0  0.42766  0.34265  0.14124  1.0000
  C   C37       1.0  0.39219  0.31767  0.28469  1.0000
  H   H15       1.0  0.36151  0.33907  0.41944  1.0000
  C   C38       1.0  0.41538  0.31888  0.18855  1.0000
  H   H16       1.0  0.44540  0.34366  0.06477  1.0000
  O   O7        1.0  0.38493  0.29133  0.30924  1.0000
  O   O8        1.0  0.42322  0.29337  0.15020  1.0000
  B   B4        1.0  0.40429  0.27651  0.22620  1.0000
  C   C39       1.0  0.40426  0.24610  0.22303  1.0000
  C   C40       1.0  0.38447  0.23158  0.30910  1.0000
  C   C41       1.0  0.42374  0.23177  0.13722  1.0000
  C   C42       1.0  0.38428  0.20398  0.31021  1.0000
  H   H17       1.0  0.36944  0.24214  0.37886  1.0000
  C   C43       1.0  0.42336  0.20413  0.13691  1.0000
  H   H18       1.0  0.43898  0.24246  0.06704  1.0000
  C   C44       1.0  0.40369  0.18961  0.22393  1.0000
  H   H19       1.0  0.36940  0.19307  0.38140  1.0000
  H   H20       1.0  0.43804  0.19337  0.06587  1.0000
  C   C45       1.0  0.30826  0.59166  0.24096  1.0000
  C   C46       1.0  0.29444  0.61146  0.15364  1.0000
  C   C47       1.0  0.29313  0.57189  0.32311  1.0000
  C   C48       1.0  0.26682  0.61151  0.14831  1.0000
  H   H21       1.0  0.30583  0.62649  0.08665  1.0000
  C   C49       1.0  0.26552  0.57184  0.31703  1.0000
  H   H22       1.0  0.30338  0.55689  0.39520  1.0000
  C   C50       1.0  0.25171  0.59163  0.22963  1.0000
  H   H23       1.0  0.25677  0.62685  0.07749  1.0000
  H   H24       1.0  0.25437  0.55654  0.38393  1.0000
  B   B5        1.0  0.22126  0.59137  0.22596  1.0000
  O   O9        1.0  0.20537  0.60978  0.14153  1.0000
  O   O10       1.0  0.20539  0.57245  0.30956  1.0000
  C   C51       1.0  0.17940  0.60211  0.17568  1.0000
  C   C52       1.0  0.17942  0.57946  0.27722  1.0000
  C   C53       1.0  0.15626  0.61430  0.12201  1.0000
  C   C54       1.0  0.15633  0.56695  0.33486  1.0000
  C   C55       1.0  0.13318  0.60184  0.17985  1.0000
  H   H25       1.0  0.15616  0.63168  0.04192  1.0000
  C   C56       1.0  0.13316  0.57913  0.28109  1.0000
  H   H26       1.0  0.15642  0.54968  0.41586  1.0000
  O   O11       1.0  0.10725  0.60926  0.14957  1.0000
  O   O12       1.0  0.10715  0.57167  0.31654  1.0000
  B   B6        1.0  0.09137  0.59053  0.23480  1.0000
  C   C57       1.0  0.06098  0.59113  0.23694  1.0000
  C   C58       1.0  0.04731  0.61123  0.15148  1.0000
  C   C59       1.0  0.04585  0.57189  0.32360  1.0000
  C   C60       1.0  0.01969  0.61191  0.15082  1.0000
  H   H27       1.0  0.05853  0.62611  0.08153  1.0000
  C   C61       1.0  0.01827  0.57284  0.32511  1.0000
  H   H28       1.0  0.05588  0.55636  0.39286  1.0000
  C   C62       1.0  0.00454  0.59268  0.23758  1.0000
  H   H29       1.0  0.00949  0.62695  0.07891  1.0000
  H   H30       1.0  0.00684  0.55838  0.39667  1.0000
  B   B7        1.0  0.40683  0.77636  0.23776  1.0000
  O   O13       1.0  0.42591  0.79217  0.31697  1.0000
  O   O14       1.0  0.38776  0.79229  0.15940  1.0000
  C   C63       1.0  0.41835  0.81815  0.28758  1.0000
  C   C64       1.0  0.39522  0.81822  0.19275  1.0000
  C   C65       1.0  0.43097  0.84119  0.34094  1.0000
  C   C66       1.0  0.38264  0.84143  0.14245  1.0000
  C   C67       1.0  0.41834  0.86440  0.29091  1.0000
  H   H31       1.0  0.44870  0.84104  0.41600  1.0000
  C   C68       1.0  0.39521  0.86446  0.19610  1.0000
  H   H32       1.0  0.36496  0.84157  0.06695  1.0000
  O   O15       1.0  0.42570  0.89036  0.32456  1.0000
  O   O16       1.0  0.38754  0.89040  0.16707  1.0000
  B   B8        1.0  0.40641  0.90624  0.24772  1.0000
  C   C69       1.0  0.40554  0.93668  0.24979  1.0000
  C   C70       1.0  0.42501  0.95194  0.32983  1.0000
  C   C71       1.0  0.38486  0.95033  0.17036  1.0000
  C   C72       1.0  0.42386  0.97955  0.32980  1.0000
  H   H33       1.0  0.44093  0.94200  0.39543  1.0000
  C   C73       1.0  0.38387  0.97794  0.16889  1.0000
  H   H34       1.0  0.36971  0.93908  0.10587  1.0000
  C   C74       1.0  0.40343  0.99323  0.24792  1.0000
  H   H35       1.0  0.43860  0.99099  0.39627  1.0000
  H   H36       1.0  0.36821  0.98808  0.10255  1.0000
  C   C75       1.0  0.83780  0.59183  0.25534  1.0000
  C   C76       1.0  0.85095  0.61618  0.22141  1.0000
  C   C77       1.0  0.85108  0.56769  0.28578  1.0000
  C   C78       1.0  0.83840  0.64038  0.16758  1.0000
  N   N5        1.0  0.87777  0.62087  0.24285  1.0000
  C   C79       1.0  0.83876  0.54315  0.34035  1.0000
  N   N6        1.0  0.87779  0.56350  0.25786  1.0000
  C   C80       1.0  0.85754  0.65980  0.16466  1.0000
  H   H37       1.0  0.81771  0.64244  0.13547  1.0000
  C   C81       1.0  0.88206  0.64768  0.21595  1.0000
  C   C82       1.0  0.85791  0.52405  0.33735  1.0000
  H   H38       1.0  0.81816  0.54068  0.37614  1.0000
  C   C83       1.0  0.88219  0.53671  0.28145  1.0000
  H   H39       1.0  0.85516  0.68046  0.13066  1.0000
  C   C84       1.0  0.90634  0.66124  0.24230  1.0000
  H   H40       1.0  0.85565  0.50328  0.37000  1.0000
  C   C85       1.0  0.90633  0.52367  0.24771  1.0000
  C   C86       1.0  0.93083  0.64829  0.26759  1.0000
  C   C87       1.0  0.93060  0.53705  0.21503  1.0000
  C   C88       1.0  0.95542  0.66090  0.31466  1.0000
  N   N7        1.0  0.93522  0.62154  0.24375  1.0000
  C   C89       1.0  0.95496  0.52481  0.16196  1.0000
  N   N8        1.0  0.93509  0.56388  0.23699  1.0000
  C   C90       1.0  0.97465  0.64183  0.31223  1.0000
  H   H41       1.0  0.95783  0.68158  0.34624  1.0000
  C   C91       1.0  0.96207  0.61729  0.26422  1.0000
  C   C92       1.0  0.97420  0.54414  0.15939  1.0000
  H   H42       1.0  0.95721  0.50412  0.13082  1.0000
  C   C93       1.0  0.96183  0.56852  0.21031  1.0000
  H   H43       1.0  0.99546  0.64432  0.34061  1.0000
  C   C94       1.0  0.97512  0.59294  0.23692  1.0000
  H   H44       1.0  0.99488  0.54193  0.12592  1.0000
  Zn  Zn2       1.0  0.90663  0.59238  0.24566  1.0000
  C   C95       1.0  0.40349  0.16017  0.22648  1.0000
  C   C96       1.0  0.42770  0.14713  0.25836  1.0000
  C   C97       1.0  0.37908  0.14682  0.20069  1.0000
  C   C98       1.0  0.45206  0.15974  0.30974  1.0000
  N   N9        1.0  0.43200  0.12030  0.23963  1.0000
  C   C99       1.0  0.35454  0.15909  0.15125  1.0000
  N   N10       1.0  0.37455  0.12007  0.22936  1.0000
  C   C100      1.0  0.47107  0.14051  0.31652  1.0000
  H   H45       1.0  0.45442  0.18058  0.33711  1.0000
  C   C101      1.0  0.45867  0.11597  0.26713  1.0000
  C   C102      1.0  0.33518  0.13987  0.15847  1.0000
  H   H46       1.0  0.35226  0.17971  0.11584  1.0000
  C   C103      1.0  0.34766  0.11553  0.21113  1.0000
  H   H47       1.0  0.49159  0.14288  0.35211  1.0000
  C   C104      1.0  0.47179  0.09170  0.23985  1.0000
  H   H48       1.0  0.31434  0.14212  0.13075  1.0000
  C   C105      1.0  0.33445  0.09118  0.24588  1.0000
  C   C106      1.0  0.45840  0.06750  0.20895  1.0000
  C   C107      1.0  0.34757  0.06688  0.27560  1.0000
  C   C108      1.0  0.47071  0.04329  0.15528  1.0000
  N   N11       1.0  0.43159  0.06296  0.23420  1.0000
  C   C109      1.0  0.33506  0.04238  0.32995  1.0000
  N   N12       1.0  0.37430  0.06251  0.24948  1.0000
  C   C110      1.0  0.45143  0.02403  0.15572  1.0000
  H   H49       1.0  0.49138  0.04116  0.12136  1.0000
  C   C111      1.0  0.42709  0.03619  0.21028  1.0000
  C   C112      1.0  0.35420  0.02323  0.32997  1.0000
  H   H50       1.0  0.31436  0.04000  0.36357  1.0000
  C   C113      1.0  0.37864  0.03573  0.27529  1.0000
  H   H51       1.0  0.45362  0.00345  0.12195  1.0000
  C   C114      1.0  0.40291  0.02268  0.24425  1.0000
  H   H52       1.0  0.35181  0.00252  0.36420  1.0000
  Zn  Zn3       1.0  0.40294  0.09161  0.23781  1.0000
  B   B9        1.0  0.90427  0.40738  0.24555  1.0000
  O   O17       1.0  0.88629  0.39144  0.15829  1.0000
  O   O18       1.0  0.92226  0.39162  0.33360  1.0000
  C   C115      1.0  0.89364  0.36548  0.19256  1.0000
  C   C116      1.0  0.91549  0.36564  0.29827  1.0000
  C   C117      1.0  0.88206  0.34222  0.13443  1.0000
  C   C118      1.0  0.92771  0.34269  0.35611  1.0000
  C   C119      1.0  0.89432  0.31925  0.19193  1.0000
  H   H53       1.0  0.86524  0.34194  0.05184  1.0000
  C   C120      1.0  0.91612  0.31946  0.29798  1.0000
  H   H54       1.0  0.94440  0.34291  0.43981  1.0000
  O   O19       1.0  0.88751  0.29321  0.15776  1.0000
  O   O20       1.0  0.92338  0.29358  0.33373  1.0000
  B   B10       1.0  0.90562  0.27752  0.24611  1.0000
  C   C121      1.0  0.90558  0.24708  0.24734  1.0000
  C   C122      1.0  0.88549  0.23309  0.16448  1.0000
  C   C123      1.0  0.92486  0.23219  0.33170  1.0000
  C   C124      1.0  0.88477  0.20549  0.16464  1.0000
  H   H55       1.0  0.87052  0.24415  0.09717  1.0000
  C   C125      1.0  0.92402  0.20455  0.33269  1.0000
  H   H56       1.0  0.94031  0.24237  0.40024  1.0000
  C   C126      1.0  0.90404  0.19057  0.24858  1.0000
  H   H57       1.0  0.86953  0.19508  0.09638  1.0000
  H   H58       1.0  0.93855  0.19331  0.40225  1.0000
  C   C127      1.0  0.90571  0.69067  0.24298  1.0000
  C   C128      1.0  0.88561  0.70418  0.32901  1.0000
  C   C129      1.0  0.92484  0.70609  0.15721  1.0000
  C   C130      1.0  0.88445  0.73178  0.32748  1.0000
  H   H59       1.0  0.87126  0.69263  0.40074  1.0000
  C   C131      1.0  0.92391  0.73369  0.15761  1.0000
  H   H60       1.0  0.94012  0.69607  0.08679  1.0000
  C   C132      1.0  0.90363  0.74716  0.24211  1.0000
  H   H61       1.0  0.86891  0.74161  0.39715  1.0000
  H   H62       1.0  0.93877  0.74507  0.08854  1.0000
  B   B11       1.0  0.90299  0.77759  0.24092  1.0000
  O   O21       1.0  0.88389  0.79331  0.32016  1.0000
  O   O22       1.0  0.92198  0.79359  0.15872  1.0000
  C   C133      1.0  0.89153  0.81934  0.28692  1.0000
  C   C134      1.0  0.91461  0.81947  0.18968  1.0000
  C   C135      1.0  0.87915  0.84243  0.33935  1.0000
  C   C136      1.0  0.92744  0.84261  0.13591  1.0000
  C   C137      1.0  0.89196  0.86558  0.28530  1.0000
  H   H63       1.0  0.86161  0.84242  0.41762  1.0000
  C   C138      1.0  0.91511  0.86569  0.18865  1.0000
  H   H64       1.0  0.94516  0.84263  0.05928  1.0000
  O   O23       1.0  0.88482  0.89150  0.31730  1.0000
  O   O24       1.0  0.92308  0.89168  0.15785  1.0000
  B   B12       1.0  0.90411  0.90743  0.23768  1.0000
  C   C139      1.0  0.90355  0.16112  0.24753  1.0000
  C   C140      1.0  0.87919  0.14783  0.27958  1.0000
  C   C141      1.0  0.92767  0.14802  0.21385  1.0000
  C   C142      1.0  0.85484  0.16016  0.33216  1.0000
  N   N13       1.0  0.87461  0.12102  0.25708  1.0000
  C   C143      1.0  0.95206  0.16067  0.15951  1.0000
  N   N14       1.0  0.93197  0.12118  0.23600  1.0000
  C   C144      1.0  0.83550  0.14090  0.33375  1.0000
  H   H65       1.0  0.85264  0.18083  0.36383  1.0000
  C   C145      1.0  0.84781  0.11650  0.28301  1.0000
  C   C146      1.0  0.97116  0.14152  0.15578  1.0000
  H   H66       1.0  0.95442  0.18149  0.12869  1.0000
  C   C147      1.0  0.95870  0.11696  0.20887  1.0000
  H   H67       1.0  0.81478  0.14313  0.36630  1.0000
  C   C148      1.0  0.83446  0.09211  0.25671  1.0000
  H   H68       1.0  0.99178  0.14394  0.12009  1.0000
  C   C149      1.0  0.97194  0.09278  0.23928  1.0000
  C   C150      1.0  0.84748  0.06783  0.22684  1.0000
  C   C151      1.0  0.95870  0.06838  0.27057  1.0000
  C   C152      1.0  0.83480  0.04340  0.17755  1.0000
  N   N15       1.0  0.87433  0.06349  0.24569  1.0000
  C   C153      1.0  0.97109  0.04395  0.32199  1.0000
  N   N16       1.0  0.93187  0.06386  0.24794  1.0000
  C   C154      1.0  0.85400  0.02433  0.17240  1.0000
  H   H69       1.0  0.81395  0.04100  0.15018  1.0000
  C   C155      1.0  0.87865  0.03679  0.21986  1.0000
  C   C156      1.0  0.95186  0.02462  0.32217  1.0000
  H   H70       1.0  0.99177  0.04173  0.35388  1.0000
  C   C157      1.0  0.92743  0.03701  0.27205  1.0000
  H   H71       1.0  0.85156  0.00373  0.13899  1.0000
  C   C158      1.0  0.90306  0.02370  0.24463  1.0000
  H   H72       1.0  0.95415  0.00386  0.35360  1.0000
  C   C159      1.0  0.50120  0.09144  0.24297  1.0000
  C   C160      1.0  0.51487  0.07127  0.32794  1.0000
  C   C161      1.0  0.51642  0.11115  0.16086  1.0000
  C   C162      1.0  0.54249  0.07071  0.32984  1.0000
  H   H73       1.0  0.50340  0.05635  0.39555  1.0000
  C   C163      1.0  0.54403  0.11071  0.16391  1.0000
  H   H74       1.0  0.50622  0.12646  0.09118  1.0000
  C   C164      1.0  0.55769  0.09044  0.24790  1.0000
  H   H75       1.0  0.55250  0.05509  0.39844  1.0000
  H   H76       1.0  0.55528  0.12597  0.09736  1.0000
  B   B13       1.0  0.58812  0.09005  0.24949  1.0000
  O   O25       1.0  0.60356  0.07128  0.33397  1.0000
  O   O26       1.0  0.60440  0.10866  0.16642  1.0000
  C   C165      1.0  0.62973  0.07863  0.30280  1.0000
  C   C166      1.0  0.63018  0.10134  0.20178  1.0000
  C   C167      1.0  0.65267  0.06634  0.35988  1.0000
  C   C168      1.0  0.65351  0.11380  0.14826  1.0000
  C   C169      1.0  0.67604  0.07879  0.30620  1.0000
  H   H77       1.0  0.65237  0.04904  0.44062  1.0000
  C   C170      1.0  0.67640  0.10156  0.20545  1.0000
  H   H78       1.0  0.65384  0.13120  0.06834  1.0000
  O   O27       1.0  0.70195  0.07161  0.34152  1.0000
  O   O28       1.0  0.70244  0.10924  0.17492  1.0000
  B   B14       1.0  0.71804  0.09061  0.25972  1.0000
  C   C171      1.0  0.74847  0.09108  0.26111  1.0000
  C   C172      1.0  0.76301  0.07184  0.34848  1.0000
  C   C173      1.0  0.76282  0.11085  0.17368  1.0000
  C   C174      1.0  0.79064  0.07236  0.34833  1.0000
  H   H79       1.0  0.75250  0.05664  0.42004  1.0000
  C   C175      1.0  0.79045  0.11118  0.17204  1.0000
  H   H80       1.0  0.75213  0.12576  0.10315  1.0000
  C   C176      1.0  0.80500  0.09194  0.25937  1.0000
  H   H81       1.0  0.80155  0.05785  0.42035  1.0000
  H   H82       1.0  0.80118  0.12606  0.09948  1.0000
  B   B15       1.0  0.21814  0.09176  0.26256  1.0000
  O   O29       1.0  0.20218  0.07283  0.18357  1.0000
  O   O30       1.0  0.20245  0.11076  0.34229  1.0000
  C   C177      1.0  0.17627  0.08030  0.21619  1.0000
  C   C178      1.0  0.17642  0.10321  0.31243  1.0000
  C   C179      1.0  0.15306  0.06793  0.16350  1.0000
  C   C180      1.0  0.15338  0.11573  0.36581  1.0000
  C   C181      1.0  0.13003  0.08046  0.21661  1.0000
  H   H83       1.0  0.15292  0.05056  0.08579  1.0000
  C   C182      1.0  0.13016  0.10336  0.31286  1.0000
  H   H84       1.0  0.15354  0.13332  0.44164  1.0000
  O   O31       1.0  0.10407  0.07330  0.18286  1.0000
  O   O32       1.0  0.10422  0.11112  0.34183  1.0000
  B   B16       1.0  0.08828  0.09255  0.25935  1.0000
  Zn  Zn4       1.0  0.90299  0.09228  0.24602  1.0000
  C   C183      1.0  0.47162  0.64014  0.65830  1.0000
  C   C184      1.0  0.45239  0.65916  0.65877  1.0000
  C   C185      1.0  0.45930  0.61563  0.71357  1.0000
  C   C186      1.0  0.42803  0.64651  0.71350  1.0000
  N   N17       1.0  0.43254  0.61978  0.73973  1.0000
  C   C187      1.0  0.45947  0.56704  0.77664  1.0000
  C   C188      1.0  0.47194  0.54279  0.83032  1.0000
  C   C189      1.0  0.45283  0.52334  0.83189  1.0000
  C   C190      1.0  0.42840  0.53543  0.77893  1.0000
  N   N18       1.0  0.43272  0.56228  0.75306  1.0000
  C   C191      1.0  0.37987  0.53473  0.71969  1.0000
  C   C192      1.0  0.35554  0.52210  0.66806  1.0000
  C   C193      1.0  0.33633  0.54117  0.66561  1.0000
  C   C194      1.0  0.34862  0.56569  0.71658  1.0000
  N   N19       1.0  0.37536  0.56149  0.74212  1.0000
  C   C195      1.0  0.34835  0.61427  0.77367  1.0000
  C   C196      1.0  0.33573  0.63850  0.82462  1.0000
  C   C197      1.0  0.35492  0.65785  0.82666  1.0000
  C   C198      1.0  0.37946  0.64579  0.77497  1.0000
  N   N20       1.0  0.37518  0.61900  0.75103  1.0000
  Zn  Zn5       1.0  0.40397  0.59062  0.74613  1.0000
  C   C199      1.0  0.33529  0.58986  0.74400  1.0000
  C   C200      1.0  0.40425  0.52182  0.74926  1.0000
  C   C201      1.0  0.47260  0.59147  0.74430  1.0000
  C   C202      1.0  0.40364  0.65939  0.74280  1.0000
  H   H85       1.0  0.31573  0.53873  0.63182  1.0000
  H   H86       1.0  0.35327  0.50138  0.63737  1.0000
  H   H87       1.0  0.45522  0.50269  0.86577  1.0000
  H   H88       1.0  0.49261  0.54069  0.86263  1.0000
  H   H89       1.0  0.49225  0.64267  0.62317  1.0000
  H   H90       1.0  0.45466  0.67988  0.62499  1.0000
  H   H91       1.0  0.35251  0.67841  0.86044  1.0000
  H   H92       1.0  0.31491  0.64060  0.85452  1.0000
  B   B17       1.0  0.58892  0.59273  0.72936  1.0000
  O   O33       1.0  0.60448  0.57274  0.65864  1.0000
  O   O34       1.0  0.60502  0.61239  0.80013  1.0000
  C   C203      1.0  0.63052  0.57997  0.68999  1.0000
  C   C204      1.0  0.63086  0.60402  0.77500  1.0000
  C   C205      1.0  0.65345  0.56628  0.64718  1.0000
  C   C206      1.0  0.65417  0.61650  0.82539  1.0000
  C   C207      1.0  0.67675  0.57876  0.69755  1.0000
  H   H93       1.0  0.65321  0.54782  0.57969  1.0000
  C   C208      1.0  0.67709  0.60279  0.78276  1.0000
  H   H94       1.0  0.65441  0.63485  0.89405  1.0000
  O   O35       1.0  0.70257  0.57016  0.67482  1.0000
  O   O36       1.0  0.70311  0.60977  0.81666  1.0000
  B   B18       1.0  0.71869  0.58955  0.74855  1.0000
  C   C209      1.0  0.74913  0.58921  0.75262  1.0000
  C   C210      1.0  0.76381  0.56981  0.66884  1.0000
  C   C211      1.0  0.76339  0.60879  0.83828  1.0000
  C   C212      1.0  0.79145  0.57030  0.66827  1.0000
  H   H95       1.0  0.75341  0.55466  0.59931  1.0000
  C   C213      1.0  0.79102  0.60895  0.84037  1.0000
  H   H96       1.0  0.75260  0.62371  0.90713  1.0000
  C   C214      1.0  0.80573  0.58988  0.75382  1.0000
  H   H97       1.0  0.80242  0.55583  0.59736  1.0000
  H   H98       1.0  0.80161  0.62362  0.91240  1.0000
  B   B19       1.0  0.40782  0.40547  0.73941  1.0000
  O   O37       1.0  0.38871  0.38894  0.81599  1.0000
  O   O38       1.0  0.42718  0.39027  0.65844  1.0000
  C   C215      1.0  0.39610  0.36331  0.77854  1.0000
  C   C216      1.0  0.41949  0.36403  0.68416  1.0000
  C   C217      1.0  0.38310  0.33986  0.82498  1.0000
  C   C218      1.0  0.43212  0.34125  0.62860  1.0000
  C   C219      1.0  0.39561  0.31713  0.76838  1.0000
  H   H99       1.0  0.36519  0.33944  0.89994  1.0000
  C   C220      1.0  0.41918  0.31778  0.67571  1.0000
  H   H100      1.0  0.45011  0.34168  0.55433  1.0000
  O   O39       1.0  0.38761  0.29101  0.79258  1.0000
  O   O40       1.0  0.42668  0.29202  0.64091  1.0000
  B   B20       1.0  0.40704  0.27565  0.71422  1.0000
  B   B21       1.0  0.21897  0.58977  0.73098  1.0000
  O   O41       1.0  0.20384  0.60994  0.65760  1.0000
  O   O42       1.0  0.20239  0.57006  0.80092  1.0000
  C   C221      1.0  0.17761  0.60267  0.68477  1.0000
  C   C222      1.0  0.17673  0.57848  0.77157  1.0000
  C   C223      1.0  0.15501  0.61645  0.63700  1.0000
  C   C224      1.0  0.15312  0.56591  0.81902  1.0000
  C   C225      1.0  0.13140  0.60391  0.68482  1.0000
  H   H101      1.0  0.15575  0.63505  0.56835  1.0000
  C   C226      1.0  0.13052  0.57972  0.77157  1.0000
  H   H102      1.0  0.15239  0.54736  0.88807  1.0000
  O   O43       1.0  0.10572  0.61248  0.65735  1.0000
  O   O44       1.0  0.10432  0.57259  0.80063  1.0000
  B   B22       1.0  0.08916  0.59293  0.72927  1.0000
  C   C227      1.0  0.05873  0.59333  0.73066  1.0000
  C   C228      1.0  0.04436  0.61330  0.64865  1.0000
  C   C229      1.0  0.04425  0.57335  0.81524  1.0000
  C   C230      1.0  0.01672  0.61313  0.64986  1.0000
  H   H103      1.0  0.05502  0.62874  0.57989  1.0000
  C   C231      1.0  0.01663  0.57339  0.81832  1.0000
  H   H104      1.0  0.05485  0.55797  0.88233  1.0000
  C   C232      1.0  0.00224  0.59316  0.73470  1.0000
  H   H105      1.0  0.00589  0.62814  0.58135  1.0000
  H   H106      1.0  0.00576  0.55837  0.88878  1.0000
  C   C233      1.0  0.40315  0.68879  0.73586  1.0000
  C   C234      1.0  0.42276  0.70420  0.81337  1.0000
  C   C235      1.0  0.38287  0.70226  0.65125  1.0000
  C   C236      1.0  0.42219  0.73179  0.80505  1.0000
  H   H107      1.0  0.43801  0.69424  0.88448  1.0000
  C   C237      1.0  0.38209  0.72985  0.64482  1.0000
  H   H108      1.0  0.36792  0.69060  0.58828  1.0000
  C   C238      1.0  0.40179  0.74523  0.72147  1.0000
  H   H109      1.0  0.43737  0.74324  0.86798  1.0000
  H   H110      1.0  0.36628  0.73966  0.57733  1.0000
  B   B23       1.0  0.40144  0.77565  0.71954  1.0000
  O   O45       1.0  0.42064  0.79105  0.79998  1.0000
  O   O46       1.0  0.38251  0.79191  0.64225  1.0000
  C   C239      1.0  0.41340  0.81712  0.77211  1.0000
  C   C240      1.0  0.39030  0.81773  0.67712  1.0000
  C   C241      1.0  0.42627  0.83981  0.82784  1.0000
  C   C242      1.0  0.37803  0.84124  0.62874  1.0000
  C   C243      1.0  0.41404  0.86328  0.77930  1.0000
  H   H111      1.0  0.44386  0.83923  0.90409  1.0000
  C   C244      1.0  0.39092  0.86398  0.68445  1.0000
  H   H112      1.0  0.36032  0.84180  0.55355  1.0000
  O   O47       1.0  0.42187  0.88893  0.81585  1.0000
  O   O48       1.0  0.38372  0.89020  0.65829  1.0000
  B   B24       1.0  0.40307  0.90539  0.73954  1.0000
  C   C245      1.0  0.40389  0.93578  0.74297  1.0000
  C   C246      1.0  0.42418  0.94935  0.82658  1.0000
  C   C247      1.0  0.38468  0.95103  0.66062  1.0000
  C   C248      1.0  0.42515  0.97697  0.82871  1.0000
  H   H113      1.0  0.43906  0.93806  0.89324  1.0000
  C   C249      1.0  0.38584  0.97862  0.66114  1.0000
  H   H114      1.0  0.36906  0.94106  0.59244  1.0000
  C   C250      1.0  0.40602  0.99223  0.74574  1.0000
  H   H115      1.0  0.44049  0.98710  0.89779  1.0000
  H   H116      1.0  0.37143  0.99013  0.59230  1.0000
  C   C251      1.0  0.83521  0.59046  0.75148  1.0000
  C   C252      1.0  0.84813  0.61513  0.72212  1.0000
  C   C253      1.0  0.84875  0.56627  0.77737  1.0000
  C   C254      1.0  0.83533  0.63956  0.67433  1.0000
  N   N21       1.0  0.87499  0.61991  0.74088  1.0000
  C   C255      1.0  0.83661  0.54149  0.82952  1.0000
  N   N22       1.0  0.87555  0.56235  0.75033  1.0000
  C   C256      1.0  0.85444  0.65903  0.67042  1.0000
  H   H117      1.0  0.81445  0.64171  0.64748  1.0000
  C   C257      1.0  0.87916  0.64683  0.71680  1.0000
  C   C258      1.0  0.85601  0.52262  0.82748  1.0000
  H   H118      1.0  0.81597  0.53874  0.86391  1.0000
  C   C259      1.0  0.88028  0.53559  0.77406  1.0000
  H   H119      1.0  0.85185  0.67977  0.63889  1.0000
  C   C260      1.0  0.90350  0.66029  0.74236  1.0000
  H   H120      1.0  0.85391  0.50180  0.85925  1.0000
  C   C261      1.0  0.90478  0.52289  0.74425  1.0000
  C   C262      1.0  0.92794  0.64738  0.76951  1.0000
  C   C263      1.0  0.92886  0.53662  0.71123  1.0000
  C   C264      1.0  0.95224  0.66007  0.82117  1.0000
  N   N23       1.0  0.93259  0.62079  0.74343  1.0000
  C   C265      1.0  0.95337  0.52464  0.65825  1.0000
  N   N24       1.0  0.93300  0.56349  0.73293  1.0000
  C   C266      1.0  0.97162  0.64119  0.81949  1.0000
  H   H121      1.0  0.95431  0.68068  0.85506  1.0000
  C   C267      1.0  0.95941  0.61677  0.76650  1.0000
  C   C268      1.0  0.97236  0.54419  0.65534  1.0000
  H   H122      1.0  0.95587  0.50398  0.62742  1.0000
  C   C269      1.0  0.95974  0.56836  0.70675  1.0000
  H   H123      1.0  0.99227  0.64367  0.85195  1.0000
  C   C270      1.0  0.97281  0.59278  0.73565  1.0000
  H   H124      1.0  0.99306  0.54225  0.62178  1.0000
  Zn  Zn6       1.0  0.90400  0.59174  0.73906  1.0000
  C   C271      1.0  0.40711  0.15922  0.72554  1.0000
  C   C272      1.0  0.43130  0.14621  0.75901  1.0000
  C   C273      1.0  0.38285  0.14571  0.69802  1.0000
  C   C274      1.0  0.45559  0.15886  0.81096  1.0000
  N   N25       1.0  0.43571  0.11936  0.73997  1.0000
  C   C275      1.0  0.35838  0.15776  0.64530  1.0000
  N   N26       1.0  0.37842  0.11899  0.72786  1.0000
  C   C276      1.0  0.47472  0.13973  0.81609  1.0000
  H   H125      1.0  0.45788  0.17964  0.84039  1.0000
  C   C277      1.0  0.46239  0.11511  0.76706  1.0000
  C   C278      1.0  0.33915  0.13843  0.65125  1.0000
  H   H126      1.0  0.35600  0.17831  0.60904  1.0000
  C   C279      1.0  0.35160  0.11431  0.70738  1.0000
  H   H127      1.0  0.49530  0.14219  0.85028  1.0000
  C   C280      1.0  0.47564  0.09080  0.74218  1.0000
  H   H128      1.0  0.31841  0.14051  0.62062  1.0000
  C   C281      1.0  0.33843  0.09010  0.74535  1.0000
  C   C282      1.0  0.46249  0.06629  0.71600  1.0000
  C   C283      1.0  0.35164  0.06604  0.77959  1.0000
  C   C284      1.0  0.47502  0.04183  0.66823  1.0000
  N   N27       1.0  0.43563  0.06176  0.73862  1.0000
  C   C285      1.0  0.33928  0.04178  0.83873  1.0000
  N   N28       1.0  0.37830  0.06162  0.75104  1.0000
  C   C286      1.0  0.45572  0.02254  0.66796  1.0000
  H   H129      1.0  0.49585  0.03957  0.63866  1.0000
  C   C287      1.0  0.43117  0.03491  0.71676  1.0000
  C   C288      1.0  0.35832  0.02255  0.83654  1.0000
  H   H130      1.0  0.31878  0.03957  0.87740  1.0000
  C   C289      1.0  0.38261  0.03491  0.77820  1.0000
  H   H131      1.0  0.45807  0.00185  0.63735  1.0000
  C   C290      1.0  0.40674  0.02166  0.74684  1.0000
  H   H132      1.0  0.35602  0.00190  0.87176  1.0000
  Zn  Zn7       1.0  0.40699  0.09049  0.73783  1.0000
  B   B25       1.0  0.90786  0.40649  0.75478  1.0000
  O   O49       1.0  0.88737  0.39076  0.69017  1.0000
  O   O50       1.0  0.92830  0.39048  0.81761  1.0000
  C   C291      1.0  0.89524  0.36479  0.71395  1.0000
  C   C292      1.0  0.91996  0.36458  0.79189  1.0000
  C   C293      1.0  0.88159  0.34183  0.66959  1.0000
  C   C294      1.0  0.93305  0.34128  0.83497  1.0000
  C   C295      1.0  0.89477  0.31853  0.71152  1.0000
  H   H133      1.0  0.86267  0.34215  0.60639  1.0000
  C   C296      1.0  0.91934  0.31830  0.79145  1.0000
  H   H134      1.0  0.95192  0.34098  0.89850  1.0000
  O   O51       1.0  0.88652  0.29266  0.68381  1.0000
  O   O52       1.0  0.92708  0.29227  0.81709  1.0000
  B   B26       1.0  0.90665  0.27666  0.75012  1.0000
  C   C297      1.0  0.90662  0.24625  0.74944  1.0000
  C   C298      1.0  0.88667  0.23172  0.66897  1.0000
  C   C299      1.0  0.92682  0.23197  0.82906  1.0000
  C   C300      1.0  0.88703  0.20411  0.66698  1.0000
  H   H135      1.0  0.87109  0.24227  0.60380  1.0000
  C   C301      1.0  0.92694  0.20436  0.82927  1.0000
  H   H136      1.0  0.94225  0.24269  0.89445  1.0000
  C   C302      1.0  0.90710  0.18979  0.74796  1.0000
  H   H137      1.0  0.87205  0.19321  0.59919  1.0000
  H   H138      1.0  0.94215  0.19359  0.89576  1.0000
  B   B27       1.0  0.90420  0.77662  0.73098  1.0000
  O   O53       1.0  0.88493  0.79227  0.80873  1.0000
  O   O54       1.0  0.92330  0.79268  0.65024  1.0000
  C   C303      1.0  0.89247  0.81830  0.77636  1.0000
  C   C304      1.0  0.91575  0.81860  0.68089  1.0000
  C   C305      1.0  0.87978  0.84124  0.82857  1.0000
  C   C306      1.0  0.92841  0.84194  0.62855  1.0000
  C   C307      1.0  0.89246  0.86455  0.77623  1.0000
  H   H139      1.0  0.86198  0.84095  0.90456  1.0000
  C   C308      1.0  0.91574  0.86490  0.68079  1.0000
  H   H140      1.0  0.94623  0.84223  0.55274  1.0000
  O   O55       1.0  0.88497  0.89039  0.80856  1.0000
  O   O56       1.0  0.92335  0.89101  0.65016  1.0000
  B   B28       1.0  0.90432  0.90656  0.73089  1.0000
  C   C309      1.0  0.90726  0.16036  0.74812  1.0000
  C   C310      1.0  0.88300  0.14700  0.78190  1.0000
  C   C311      1.0  0.93151  0.14733  0.71562  1.0000
  C   C312      1.0  0.85883  0.15924  0.83841  1.0000
  N   N29       1.0  0.87836  0.12027  0.75841  1.0000
  C   C313      1.0  0.95599  0.16004  0.66355  1.0000
  N   N30       1.0  0.93587  0.12047  0.73790  1.0000
  C   C314      1.0  0.83953  0.13998  0.84192  1.0000
  H   H141      1.0  0.85673  0.17986  0.87115  1.0000
  C   C315      1.0  0.85163  0.11574  0.78723  1.0000
  C   C316      1.0  0.97518  0.14094  0.66226  1.0000
  H   H142      1.0  0.95840  0.18086  0.63224  1.0000
  C   C317      1.0  0.96267  0.11623  0.71241  1.0000
  H   H143      1.0  0.81898  0.14213  0.87860  1.0000
  C   C318      1.0  0.83815  0.09157  0.75763  1.0000
  H   H144      1.0  0.99594  0.14354  0.63050  1.0000
  C   C319      1.0  0.97577  0.09180  0.73911  1.0000
  C   C320      1.0  0.85116  0.06744  0.72415  1.0000
  C   C321      1.0  0.96234  0.06740  0.76904  1.0000
  C   C322      1.0  0.83851  0.04328  0.67040  1.0000
  N   N31       1.0  0.87797  0.06297  0.74488  1.0000
  C   C323      1.0  0.97462  0.04285  0.81964  1.0000
  N   N32       1.0  0.93547  0.06302  0.74740  1.0000
  C   C324      1.0  0.85760  0.02412  0.66596  1.0000
  H   H145      1.0  0.81775  0.04111  0.63972  1.0000
  C   C325      1.0  0.88218  0.03632  0.71719  1.0000
  C   C326      1.0  0.95527  0.02363  0.82089  1.0000
  H   H146      1.0  0.99533  0.04046  0.85055  1.0000
  C   C327      1.0  0.93087  0.03616  0.77141  1.0000
  H   H147      1.0  0.85512  0.00362  0.63074  1.0000
  C   C328      1.0  0.90642  0.02299  0.74360  1.0000
  H   H148      1.0  0.95749  0.00287  0.85292  1.0000
  B   B29       1.0  0.59198  0.09199  0.74497  1.0000
  O   O57       1.0  0.60735  0.07265  0.82480  1.0000
  O   O58       1.0  0.60829  0.11117  0.66684  1.0000
  C   C329      1.0  0.63349  0.07999  0.79415  1.0000
  C   C330      1.0  0.63405  0.10345  0.69982  1.0000
  C   C331      1.0  0.65632  0.06693  0.84541  1.0000
  C   C332      1.0  0.65746  0.11618  0.65020  1.0000
  C   C333      1.0  0.67974  0.07955  0.79462  1.0000
  H   H149      1.0  0.65588  0.04891  0.91986  1.0000
  C   C334      1.0  0.68028  0.10326  0.70280  1.0000
  H   H150      1.0  0.65789  0.13422  0.57594  1.0000
  O   O59       1.0  0.70552  0.07164  0.82566  1.0000
  O   O60       1.0  0.70641  0.11097  0.67506  1.0000
  B   B30       1.0  0.72180  0.09132  0.75222  1.0000
  C   C335      1.0  0.30903  0.08984  0.74907  1.0000
  C   C336      1.0  0.29447  0.06952  0.67224  1.0000
  C   C337      1.0  0.29477  0.10984  0.82991  1.0000
  C   C338      1.0  0.26686  0.06915  0.67685  1.0000
  H   H151      1.0  0.30522  0.05429  0.60640  1.0000
  C   C339      1.0  0.26714  0.10957  0.83366  1.0000
  H   H152      1.0  0.30579  0.12515  0.89392  1.0000
  C   C340      1.0  0.25260  0.08917  0.75767  1.0000
  H   H153      1.0  0.25608  0.05342  0.61455  1.0000
  H   H154      1.0  0.25662  0.12499  0.89986  1.0000
  B   B31       1.0  0.22218  0.08878  0.76130  1.0000
  O   O61       1.0  0.20641  0.06879  0.69112  1.0000
  O   O62       1.0  0.20629  0.10840  0.83293  1.0000
  C   C341      1.0  0.18042  0.07654  0.71754  1.0000
  C   C342      1.0  0.18036  0.10052  0.80327  1.0000
  C   C343      1.0  0.15733  0.06348  0.66866  1.0000
  C   C344      1.0  0.15719  0.11355  0.84875  1.0000
  C   C345      1.0  0.13416  0.07657  0.71381  1.0000
  H   H155      1.0  0.15741  0.04513  0.59998  1.0000
  C   C346      1.0  0.13412  0.10051  0.79991  1.0000
  H   H156      1.0  0.15713  0.13189  0.91741  1.0000
  O   O63       1.0  0.10820  0.06897  0.68236  1.0000
  O   O64       1.0  0.10819  0.10848  0.82494  1.0000
  B   B32       1.0  0.09230  0.08903  0.74999  1.0000
  C   C347      1.0  0.06186  0.08999  0.74308  1.0000
  C   C348      1.0  0.04703  0.07089  0.65709  1.0000
  C   C349      1.0  0.04776  0.11016  0.82380  1.0000
  C   C350      1.0  0.01942  0.07185  0.65279  1.0000
  H   H157      1.0  0.05732  0.05540  0.59020  1.0000
  C   C351      1.0  0.02012  0.11078  0.82240  1.0000
  H   H158      1.0  0.05860  0.12507  0.89279  1.0000
  C   C352      1.0  0.00525  0.09159  0.73733  1.0000
  H   H159      1.0  0.00840  0.05744  0.58130  1.0000
  H   H160      1.0  0.00963  0.12575  0.89222  1.0000
  Zn  Zn8       1.0  0.90692  0.09178  0.74600  1.0000
  C   C353      1.0  0.38350  0.45524  0.84368  1.0000
  C   C354      1.0  0.40040  0.43882  0.75426  1.0000
  C  Sn1       1.0  0.42133  0.44976  0.66172  1.0000
  C  Sn2       1.0  0.42538  0.47767  0.65892  1.0000
  C   C355      1.0  0.40837  0.49393  0.74889  1.0000
  C   C356      1.0  0.38748  0.48277  0.84103  1.0000
  H   H161      1.0  0.36735  0.44661  0.91505  1.0000
  O  Te1       1.0  0.43802  0.43306  0.57305  1.0000
  O  Te2       1.0  0.44615  0.48913  0.56751  1.0000
  H   H162      1.0  0.37441  0.49550  0.91034  1.0000
  Mg  Mg1       1.0  0.46356  0.45810  0.46699  1.0000
  C   C357      1.0  0.03749  0.06996  0.15380  1.0000
  C   C358      1.0  0.05477  0.08839  0.22412  1.0000
  C  Sn3       1.0  0.04474  0.10967  0.31345  1.0000
  C  Sn4       1.0  0.01688  0.11248  0.33255  1.0000
  C   C359      1.0  0.99976  0.09393  0.26181  1.0000
  C   C360      1.0  0.01001  0.07272  0.17263  1.0000
  H   H163      1.0  0.04543  0.05354  0.08487  1.0000
  O  Te3       1.0  0.06228  0.12791  0.38285  1.0000
  O  Te4       1.0  0.00631  0.13355  0.42126  1.0000
  H   H164      1.0  0.99663  0.05844  0.11828  1.0000
  Mg  Mg2       1.0  0.03830  0.15328  0.49269  1.0000
  C   C361      1.0  0.92793  0.95796  0.63620  1.0000
  C   C362      1.0  0.91145  0.94021  0.72302  1.0000
  C  Sn5       1.0  0.89050  0.94963  0.81901  1.0000
  C  Sn6       1.0  0.88601  0.97736  0.82796  1.0000
  C   C363      1.0  0.90259  0.99496  0.74054  1.0000
  C   C364      1.0  0.92351  0.98531  0.64491  1.0000
  H   H165      1.0  0.94410  0.95051  0.56214  1.0000
  O  Te5       1.0  0.87424  0.93162  0.90501  1.0000
  O  Te6       1.0  0.86521  0.98731  0.92291  1.0000
  H   H166      1.0  0.92851  0.99906  0.57762  1.0000
  Mg  Mg3       1.0  0.84967  0.95666  0.01776  1.0000
  C   C365      1.0  0.88312  0.47407  0.14447  1.0000
  C   C366      1.0  0.89985  0.49117  0.23060  1.0000
  C  Sn7       1.0  0.92066  0.48098  0.32418  1.0000
  C  Sn8       1.0  0.92475  0.45315  0.33139  1.0000
  C   C367      1.0  0.90791  0.43621  0.24468  1.0000
  C   C368      1.0  0.88715  0.44662  0.15147  1.0000
  H   H167      1.0  0.86706  0.48212  0.07227  1.0000
  O  Te7       1.0  0.93718  0.49834  0.40952  1.0000
  O  Te8       1.0  0.94540  0.44244  0.42392  1.0000
  H   H168      1.0  0.87421  0.43338  0.08471  1.0000
  Mg  Mg4       1.0  0.96260  0.47420  0.51875  1.0000
  C   C369      1.0  0.38335  0.22433  0.80886  1.0000
  C   C370      1.0  0.40194  0.24199  0.73952  1.0000
  C  Sn9       1.0  0.42357  0.23243  0.65008  1.0000
  C  Sn10      1.0  0.42659  0.20467  0.62987  1.0000
  C   C371      1.0  0.40788  0.18717  0.69963  1.0000
  C   C372      1.0  0.38632  0.19695  0.78893  1.0000
  H   H169      1.0  0.36666  0.23190  0.87789  1.0000
  O  Te9       1.0  0.44195  0.25034  0.58166  1.0000
  O  Te10      1.0  0.44802  0.19457  0.54102  1.0000
  H   H170      1.0  0.37192  0.18327  0.84252  1.0000
  Mg  Mg5       1.0  0.46782  0.22694  0.47120  1.0000
  C   C373      1.0  0.38131  0.45790  0.35964  1.0000
  C   C374      1.0  0.39671  0.43994  0.27123  1.0000
  C  Sn11      1.0  0.41788  0.44903  0.17339  1.0000
  C  Sn12      1.0  0.42371  0.47662  0.16418  1.0000
  C   C375      1.0  0.40821  0.49442  0.25319  1.0000
  C   C376      1.0  0.38706  0.48511  0.35066  1.0000
  H   H171      1.0  0.36496  0.45070  0.43513  1.0000
  O  Te11      1.0  0.43305  0.43082  0.08582  1.0000
  O  Te12      1.0  0.44476  0.48624  0.06739  1.0000
  H   H172      1.0  0.37516  0.49901  0.41918  1.0000
  Mg  Mg6       1.0  0.45848  0.45180  0.97085  1.0000
  C   C377      1.0  0.88319  0.45671  0.66100  1.0000
  C   C378      1.0  0.90219  0.43993  0.72970  1.0000
  C  Sn13      1.0  0.92334  0.45048  0.81868  1.0000
  C  Sn14      1.0  0.92545  0.47836  0.83909  1.0000
  C   C379      1.0  0.90632  0.49498  0.76997  1.0000
  C   C380      1.0  0.88524  0.48421  0.68112  1.0000
  H   H173      1.0  0.86687  0.44838  0.59232  1.0000
  O  Te13      1.0  0.94217  0.43343  0.88646  1.0000
  O  Te14      1.0  0.94638  0.48943  0.92749  1.0000
  H   H174      1.0  0.87051  0.49720  0.62802  1.0000
  Mg  Mg7       1.0  0.96707  0.45801  0.99650  1.0000
  C   C381      1.0  0.42929  0.72550  0.34385  1.0000
  C   C382      1.0  0.41347  0.74277  0.25213  1.0000
  C  Sn15      1.0  0.39291  0.73281  0.15566  1.0000
  C  Sn16      1.0  0.38814  0.70503  0.15121  1.0000
  C   C383      1.0  0.40406  0.68791  0.24350  1.0000
  C   C384      1.0  0.42459  0.69809  0.33958  1.0000
  H   H175      1.0  0.44516  0.73337  0.41826  1.0000
  O  Te15      1.0  0.37731  0.75035  0.06474  1.0000
  O  Te16      1.0  0.36772  0.69454  0.05589  1.0000
  H   H176      1.0  0.43682  0.68471  0.41066  1.0000
  Mg  Mg8       1.0  0.35067  0.72468  0.95348  1.0000
  C   C385      1.0  0.92621  0.71035  0.63461  1.0000
  C   C386      1.0  0.90976  0.69289  0.72388  1.0000
  C  Sn17      1.0  0.88898  0.70265  0.81994  1.0000
  C  Sn18      1.0  0.88463  0.73042  0.82647  1.0000
  C   C387      1.0  0.90119  0.74772  0.73662  1.0000
  C   C388      1.0  0.92193  0.73774  0.64094  1.0000
  H   H177      1.0  0.94225  0.70263  0.56050  1.0000
  O  Te17      1.0  0.87274  0.68492  0.90840  1.0000
  O  Te18      1.0  0.86400  0.74071  0.92144  1.0000
  H   H178      1.0  0.93465  0.75127  0.57175  1.0000
  Mg  Mg9       1.0  0.84843  0.71036  0.02014  1.0000
  C   C389      1.0  0.28456  0.56711  0.84153  1.0000
  C   C390      1.0  0.30256  0.58377  0.75817  1.0000
  C  Sn19      1.0  0.29342  0.60494  0.66229  1.0000
  C  Sn20      1.0  0.26573  0.60948  0.64991  1.0000
  C   C391      1.0  0.24788  0.59271  0.73387  1.0000
  C   C392      1.0  0.25724  0.57157  0.82943  1.0000
  H   H179      1.0  0.29180  0.55076  0.91554  1.0000
  O  Te19      1.0  0.31169  0.62139  0.57977  1.0000
  O  Te20      1.0  0.25606  0.63050  0.55498  1.0000
  H   H180      1.0  0.24330  0.55868  0.89404  1.0000
  Mg  Mg10      1.0  0.28880  0.64743  0.46559  1.0000
  C   C393      1.0  0.78833  0.11456  0.65922  1.0000
  C   C394      1.0  0.80556  0.09781  0.74443  1.0000
  C  Sn21      1.0  0.79555  0.07628  0.83592  1.0000
  C  Sn22      1.0  0.76776  0.07148  0.84195  1.0000
  C   C395      1.0  0.75068  0.08834  0.75618  1.0000
  C   C396      1.0  0.76091  0.10983  0.66504  1.0000
  H   H181      1.0  0.79624  0.13118  0.58863  1.0000
  O  Te21      1.0  0.81305  0.05975  0.92038  1.0000
  O  Te22      1.0  0.75723  0.05010  0.93240  1.0000
  H   H182      1.0  0.74756  0.12278  0.59899  1.0000
  Mg  Mg11      1.0  0.79032  0.03499  0.02671  1.0000
  C   C397      1.0  0.53785  0.61592  0.82607  1.0000
  C   C398      1.0  0.55535  0.59760  0.75783  1.0000
  C  Sn23      1.0  0.54560  0.57591  0.67068  1.0000
  C  Sn24      1.0  0.51780  0.57254  0.65166  1.0000
  C   C399      1.0  0.50045  0.59098  0.72030  1.0000
  C   C400      1.0  0.51042  0.61262  0.80732  1.0000
  H   H183      1.0  0.54556  0.63266  0.89332  1.0000
  O  Te23      1.0  0.56337  0.55779  0.60335  1.0000
  O  Te24      1.0  0.50751  0.55104  0.56510  1.0000
  H   H184      1.0  0.49686  0.62680  0.86005  1.0000
  Mg  Mg12      1.0  0.53973  0.53170  0.49602  1.0000
  C   C401      1.0  0.92668  0.97435  0.14460  1.0000
  C   C402      1.0  0.90769  0.99124  0.21177  1.0000
  C  Sn25      1.0  0.88655  0.98084  0.30489  1.0000
  C  Sn26      1.0  0.88445  0.95301  0.33109  1.0000
  C   C403      1.0  0.90357  0.93627  0.26346  1.0000
  C   C404      1.0  0.92463  0.94689  0.17043  1.0000
  H   H185      1.0  0.94299  0.98256  0.07269  1.0000
  O  Te25      1.0  0.86774  0.99801  0.37106  1.0000
  O  Te26      1.0  0.86353  0.94208  0.42372  1.0000
  H   H186      1.0  0.93934  0.93381  0.11853  1.0000
  Mg  Mg13      1.0  0.84286  0.97362  0.48841  1.0000
  C   C405      1.0  0.54078  0.06918  0.84705  1.0000
  C   C406      1.0  0.55837  0.08531  0.75651  1.0000
  C  Sn27      1.0  0.54879  0.10612  0.65931  1.0000
  C  Sn28      1.0  0.52108  0.11084  0.65292  1.0000
  C   C407      1.0  0.50364  0.09461  0.74405  1.0000
  C   C408      1.0  0.51344  0.07383  0.84087  1.0000
  H   H187      1.0  0.54836  0.05312  0.92203  1.0000
  O  Te27      1.0  0.56664  0.12204  0.56958  1.0000
  O  Te28      1.0  0.51096  0.13151  0.55684  1.0000
  H   H188      1.0  0.49982  0.06136  0.91104  1.0000
  Mg  Mg14      1.0  0.54324  0.14775  0.45663  1.0000
  C   C409      1.0  0.54006  0.56831  0.13195  1.0000
  C   C410      1.0  0.55804  0.58647  0.19828  1.0000
  C  Sn29      1.0  0.54898  0.60705  0.29732  1.0000
  C  Sn30      1.0  0.52141  0.60944  0.33039  1.0000
  C   C411      1.0  0.50358  0.59115  0.26355  1.0000
  C   C412      1.0  0.51286  0.57064  0.16457  1.0000
  H   H189      1.0  0.54723  0.55243  0.05544  1.0000
  O  Te29      1.0  0.56721  0.62503  0.36254  1.0000
  O  Te30      1.0  0.51182  0.62981  0.42903  1.0000
  H   H190      1.0  0.49894  0.55657  0.11332  1.0000
  Mg  Mg15      1.0  0.54447  0.64942  0.48971  1.0000
  C   C413      1.0  0.26865  0.06919  0.15501  1.0000
  C   C414      1.0  0.25163  0.08509  0.24722  1.0000
  C  Sn31      1.0  0.26186  0.10582  0.34101  1.0000
  C  Sn32      1.0  0.28965  0.11067  0.34221  1.0000
  C   C415      1.0  0.30651  0.09466  0.24945  1.0000
  C   C416      1.0  0.29606  0.07397  0.15609  1.0000
  H   H191      1.0  0.26057  0.05320  0.08270  1.0000
  O  Te31      1.0  0.24458  0.12150  0.43247  1.0000
  O  Te32      1.0  0.30040  0.13125  0.43481  1.0000
  H   H192      1.0  0.30924  0.06168  0.08462  1.0000
  Mg  Mg16      1.0  0.26875  0.14717  0.53921  1.0000
