data_image0
_chemical_formula_structural       C4NC4NC4NC4NC4H8C4HCHCH2BO2C5HCHO2BC4HCHCH2BO2C5HCHO2BC4HCHCH2BO2C5HCHO2BC4HCHCH2BO2C5HCHO2BC4HCHCH2C4NCNCHC2HCHCHC4NCNCHC2HCHCHC4NCNCHC2HCHCHC4NCNCHC2HCHCHBO2C5HCHO2BC4HCHCH2C4HCHCH2BO2C5HCHO2BC4HCHCH2C4NCNCHC2HCHCHC4NCNCHC2HCHCHC4HCHCH2BO2C5HCHO2BC4HCHCH2BO2C5HCHO2BC4HCHCH10C4NC4NC4NC4NC4H8BO2C5HCHO2BC4HCHCH2BO2C5HCHO2BC4HCHCH2BO2C5HCHO2B2O2C5HCHO2BC4NCNCHC2HCHCHC4NCNCHC2HCHCHC4NCNCHC2HCHCHC4NCNCHC2HCHCHBO2C5HCHO2B2O2C5HCHO2BC4HCHCH2C4NCNCHC2HCHCHC4NCNCHC2HCHCHBO2C5HCHO2BC4HCHCH2BO2C5HCHO2BC4HCHCH10C2Sn2C2HTe2HMgC2Sn2C2HTe2HMgC2Sn2C2HTe2HMgC2Sn2C2HTe2HMgC2Sn2C2HTe2HMgC2Sn2C2HTe2HMgC2Sn2C2HTe2HMgC2Sn2C2HTe2HMgC2Sn2C2HTe2HMgC2Sn2C2HTe2HMgC2Sn2C2HTe2HMgC2Sn2C2HTe2HMgC2Sn2C2HTe2HMgC2Sn2C2HTe2HMgC2Sn2C2HTe2HMgC2Sn2C2HTe2HMg
_chemical_formula_sum              "C416 N32 H208 B32 O64 Sn32 Te32 Mg16"
_cell_length_a       50.3849
_cell_length_b       50.3731
_cell_length_c       8.13416
_cell_angle_alpha    89.9947
_cell_angle_beta     90.2652
_cell_angle_gamma    90.2703

_symmetry_space_group_name_H-M    'P1'
_space_group_IT_number       1

loop_
  _space_group_symop_operation_xyz
  'x, y, z'

loop_
  _atom_site_type_symbol
  _atom_site_label
  _atom_site_symmetry_multiplicity
  _atom_site_fract_x
  _atom_site_fract_y
  _atom_site_fract_z
  _atom_site_occupancy
  C   C1        1.0  0.47427  0.64151  0.13631  1.0000
  C   C2        1.0  0.45502  0.66080  0.14053  1.0000
  C   C3        1.0  0.46250  0.61691  0.18689  1.0000
  C   C4        1.0  0.43074  0.64874  0.19371  1.0000
  N   N1        1.0  0.43608  0.62213  0.21560  1.0000
  C   C5        1.0  0.46149  0.56813  0.24078  1.0000
  C   C6        1.0  0.47432  0.54369  0.29395  1.0000
  C   C7        1.0  0.45508  0.52464  0.29623  1.0000
  C   C8        1.0  0.43065  0.53749  0.24304  1.0000
  N   N2        1.0  0.43479  0.56413  0.21700  1.0000
  C   C9        1.0  0.38195  0.53677  0.18579  1.0000
  C   C10       1.0  0.35753  0.52515  0.13026  1.0000
  C   C11       1.0  0.33825  0.54440  0.13385  1.0000
  C   C12       1.0  0.35014  0.56855  0.19145  1.0000
  N   N3        1.0  0.37668  0.56315  0.21644  1.0000
  C   C13       1.0  0.35137  0.61692  0.25675  1.0000
  C   C14       1.0  0.33886  0.64125  0.31392  1.0000
  C   C15       1.0  0.35805  0.66034  0.31285  1.0000
  C   C16       1.0  0.38224  0.64757  0.25610  1.0000
  N   N4        1.0  0.37797  0.62097  0.22942  1.0000
  C   C17       1.0  0.33751  0.59293  0.22472  1.0000
  C   C18       1.0  0.40642  0.52390  0.21345  1.0000
  C   C19       1.0  0.47518  0.59230  0.21181  1.0000
  C   C20       1.0  0.40631  0.66130  0.22541  1.0000
  H   H1        1.0  0.31761  0.54220  0.09952  1.0000
  H   H2        1.0  0.35517  0.50471  0.09234  1.0000
  H   H3        1.0  0.45720  0.50404  0.33119  1.0000
  H   H4        1.0  0.49506  0.54146  0.32556  1.0000
  H   H5        1.0  0.49481  0.64393  0.10118  1.0000
  H   H6        1.0  0.45730  0.68156  0.10965  1.0000
  H   H7        1.0  0.35612  0.68097  0.34718  1.0000
  H   H8        1.0  0.31835  0.64342  0.35001  1.0000
  C   C21       1.0  0.50456  0.59202  0.20823  1.0000
  C   C22       1.0  0.51829  0.57225  0.12105  1.0000
  C   C23       1.0  0.51967  0.61129  0.29298  1.0000
  C   C24       1.0  0.54590  0.57162  0.11973  1.0000
  H   H9        1.0  0.50690  0.55767  0.05170  1.0000
  C   C25       1.0  0.54726  0.61089  0.28970  1.0000
  H   H10       1.0  0.50943  0.62618  0.36520  1.0000
  C   C26       1.0  0.56098  0.59101  0.20337  1.0000
  H   H11       1.0  0.55598  0.55624  0.05011  1.0000
  H   H12       1.0  0.55843  0.62581  0.35816  1.0000
  B   B1        1.0  0.59136  0.59071  0.20272  1.0000
  O   O1        1.0  0.60719  0.57153  0.12521  1.0000
  O   O2        1.0  0.60717  0.60979  0.28336  1.0000
  C   C27       1.0  0.63316  0.57905  0.15932  1.0000
  C   C28       1.0  0.63311  0.60227  0.25439  1.0000
  C   C29       1.0  0.65632  0.56634  0.11076  1.0000
  C   C30       1.0  0.65614  0.61494  0.30890  1.0000
  C   C31       1.0  0.67937  0.57900  0.16548  1.0000
  H   H13       1.0  0.65641  0.54834  0.03738  1.0000
  C   C32       1.0  0.67930  0.60233  0.25935  1.0000
  H   H14       1.0  0.65605  0.63279  0.38358  1.0000
  O   O3        1.0  0.70535  0.57128  0.13945  1.0000
  O   O4        1.0  0.70520  0.60990  0.29278  1.0000
  B   B2        1.0  0.72116  0.59056  0.21806  1.0000
  C   C33       1.0  0.75160  0.59071  0.22126  1.0000
  C   C34       1.0  0.76626  0.57091  0.14037  1.0000
  C   C35       1.0  0.76580  0.61085  0.30425  1.0000
  C   C36       1.0  0.79387  0.57140  0.14150  1.0000
  H   H15       1.0  0.75584  0.55532  0.07302  1.0000
  C   C37       1.0  0.79342  0.61120  0.30638  1.0000
  H   H16       1.0  0.75497  0.62610  0.37052  1.0000
  C   C38       1.0  0.80810  0.59154  0.22443  1.0000
  H   H17       1.0  0.80487  0.55646  0.07422  1.0000
  H   H18       1.0  0.80409  0.62644  0.37459  1.0000
  B   B3        1.0  0.40613  0.40754  0.21151  1.0000
  O   O5        1.0  0.38618  0.39181  0.28328  1.0000
  O   O6        1.0  0.42589  0.39155  0.14134  1.0000
  C   C39       1.0  0.39374  0.36582  0.25588  1.0000
  C   C40       1.0  0.41781  0.36566  0.17025  1.0000
  C   C41       1.0  0.38034  0.34282  0.30323  1.0000
  C   C42       1.0  0.43059  0.34241  0.12329  1.0000
  C   C43       1.0  0.39313  0.31957  0.25629  1.0000
  H   H19       1.0  0.36190  0.34302  0.37163  1.0000
  C   C44       1.0  0.41719  0.31940  0.17041  1.0000
  H   H20       1.0  0.44899  0.34224  0.05447  1.0000
  O   O7        1.0  0.38491  0.29367  0.28349  1.0000
  O   O8        1.0  0.42460  0.29340  0.14131  1.0000
  B   B4        1.0  0.40449  0.27767  0.21152  1.0000
  C   C45       1.0  0.30809  0.59297  0.22334  1.0000
  C   C46       1.0  0.29377  0.61320  0.14323  1.0000
  C   C47       1.0  0.29342  0.57263  0.30060  1.0000
  C   C48       1.0  0.26615  0.61307  0.14035  1.0000
  H   H21       1.0  0.30476  0.62868  0.07982  1.0000
  C   C49       1.0  0.26581  0.57232  0.29593  1.0000
  H   H22       1.0  0.30407  0.55730  0.36730  1.0000
  C   C50       1.0  0.25153  0.59253  0.21557  1.0000
  H   H23       1.0  0.25568  0.62881  0.07571  1.0000
  H   H24       1.0  0.25507  0.55650  0.35841  1.0000
  B   B5        1.0  0.22109  0.59216  0.21054  1.0000
  O   O9        1.0  0.20529  0.61229  0.14155  1.0000
  O   O10       1.0  0.20518  0.57167  0.27539  1.0000
  C   C51       1.0  0.17933  0.60416  0.16665  1.0000
  C   C52       1.0  0.17926  0.57963  0.24794  1.0000
  C   C53       1.0  0.15622  0.61749  0.12185  1.0000
  C   C54       1.0  0.15612  0.56627  0.29251  1.0000
  C   C55       1.0  0.13307  0.60415  0.16656  1.0000
  H   H25       1.0  0.15626  0.63637  0.05767  1.0000
  C   C56       1.0  0.13303  0.57961  0.24786  1.0000
  H   H26       1.0  0.15608  0.54748  0.35783  1.0000
  O   O11       1.0  0.10714  0.61227  0.14139  1.0000
  O   O12       1.0  0.10707  0.57168  0.27556  1.0000
  B   B6        1.0  0.09127  0.59214  0.21039  1.0000
  C   C57       1.0  0.06087  0.59257  0.21422  1.0000
  C   C58       1.0  0.04656  0.61268  0.13306  1.0000
  C   C59       1.0  0.04634  0.57290  0.29836  1.0000
  C   C60       1.0  0.01894  0.61293  0.13422  1.0000
  H   H27       1.0  0.05727  0.62791  0.06507  1.0000
  C   C61       1.0  0.01874  0.57340  0.30172  1.0000
  H   H28       1.0  0.05686  0.55741  0.36496  1.0000
  C   C62       1.0  0.00439  0.59327  0.21841  1.0000
  H   H29       1.0  0.00823  0.62797  0.06529  1.0000
  H   H30       1.0  0.00783  0.55856  0.37114  1.0000
  B   B7        1.0  0.40538  0.77763  0.22131  1.0000
  O   O13       1.0  0.42455  0.79358  0.30036  1.0000
  O   O14       1.0  0.38627  0.79339  0.14177  1.0000
  C   C63       1.0  0.41699  0.81949  0.26921  1.0000
  C   C64       1.0  0.39381  0.81937  0.17332  1.0000
  C   C65       1.0  0.42962  0.84267  0.32172  1.0000
  C   C66       1.0  0.38117  0.84241  0.12074  1.0000
  C   C67       1.0  0.41698  0.86571  0.26903  1.0000
  H   H31       1.0  0.44738  0.84278  0.39783  1.0000
  C   C68       1.0  0.39379  0.86558  0.17318  1.0000
  H   H32       1.0  0.36347  0.84230  0.04422  1.0000
  O   O15       1.0  0.42454  0.89172  0.30013  1.0000
  O   O16       1.0  0.38625  0.89148  0.14150  1.0000
  B   B8        1.0  0.40535  0.90743  0.22099  1.0000
  C   C69       1.0  0.40477  0.93781  0.22057  1.0000
  C   C70       1.0  0.42434  0.95299  0.30196  1.0000
  C   C71       1.0  0.38419  0.95141  0.13911  1.0000
  C   C72       1.0  0.42337  0.98058  0.30173  1.0000
  H   H33       1.0  0.44019  0.94299  0.36860  1.0000
  C   C73       1.0  0.38327  0.97900  0.13856  1.0000
  H   H34       1.0  0.36905  0.94013  0.07315  1.0000
  C   C74       1.0  0.40288  0.99421  0.21947  1.0000
  H   H35       1.0  0.43821  0.99208  0.36829  1.0000
  H   H36       1.0  0.36760  0.98918  0.07208  1.0000
  C   C75       1.0  0.83750  0.59200  0.22471  1.0000
  C   C76       1.0  0.85086  0.61625  0.19307  1.0000
  C   C77       1.0  0.85057  0.56772  0.25424  1.0000
  C   C78       1.0  0.83776  0.64025  0.13531  1.0000
  N   N5        1.0  0.87748  0.62074  0.21817  1.0000
  C   C79       1.0  0.83908  0.54316  0.30768  1.0000
  N   N6        1.0  0.87702  0.56271  0.22556  1.0000
  C   C80       1.0  0.85670  0.65959  0.13212  1.0000
  H   H37       1.0  0.81707  0.64200  0.10125  1.0000
  C   C81       1.0  0.88126  0.64732  0.18856  1.0000
  C   C82       1.0  0.85847  0.52402  0.30371  1.0000
  H   H38       1.0  0.81861  0.54065  0.34417  1.0000
  C   C83       1.0  0.88260  0.53620  0.24880  1.0000
  H   H39       1.0  0.85433  0.68003  0.09455  1.0000
  C   C84       1.0  0.90528  0.66143  0.21650  1.0000
  H   H40       1.0  0.85636  0.50328  0.33546  1.0000
  C   C85       1.0  0.90712  0.52383  0.21643  1.0000
  C   C86       1.0  0.92995  0.64909  0.24691  1.0000
  C   C87       1.0  0.93103  0.53786  0.18706  1.0000
  C   C88       1.0  0.95434  0.66133  0.29816  1.0000
  N   N7        1.0  0.93549  0.62258  0.22322  1.0000
  C   C89       1.0  0.95544  0.52551  0.13042  1.0000
  N   N8        1.0  0.93491  0.56450  0.21515  1.0000
  C   C90       1.0  0.97383  0.64227  0.29859  1.0000
  H   H41       1.0  0.95658  0.68206  0.33021  1.0000
  C   C91       1.0  0.96212  0.61762  0.24782  1.0000
  C   C92       1.0  0.97436  0.54486  0.13155  1.0000
  H   H42       1.0  0.95770  0.50499  0.09438  1.0000
  C   C93       1.0  0.96144  0.56897  0.18865  1.0000
  H   H43       1.0  0.99451  0.64492  0.33073  1.0000
  C   C94       1.0  0.97497  0.59323  0.21860  1.0000
  H   H44       1.0  0.99496  0.54304  0.09665  1.0000
  C   C95       1.0  0.40252  0.16122  0.20610  1.0000
  C   C96       1.0  0.42703  0.14846  0.23492  1.0000
  C   C97       1.0  0.37823  0.14746  0.18005  1.0000
  C   C98       1.0  0.45154  0.16019  0.28851  1.0000
  N   N9        1.0  0.43213  0.12191  0.20978  1.0000
  C   C99       1.0  0.35368  0.16012  0.12701  1.0000
  N   N10       1.0  0.37410  0.12091  0.20990  1.0000
  C   C100      1.0  0.47065  0.14077  0.29042  1.0000
  H   H45       1.0  0.45408  0.18085  0.32104  1.0000
  C   C101      1.0  0.45861  0.11645  0.23700  1.0000
  C   C102      1.0  0.33443  0.14110  0.13329  1.0000
  H   H46       1.0  0.35151  0.18058  0.08924  1.0000
  C   C103      1.0  0.34732  0.11682  0.18856  1.0000
  H   H47       1.0  0.49126  0.14296  0.32589  1.0000
  C   C104      1.0  0.47104  0.09189  0.20723  1.0000
  H   H48       1.0  0.31361  0.14320  0.10317  1.0000
  C   C105      1.0  0.33362  0.09273  0.22112  1.0000
  C   C106      1.0  0.45701  0.06798  0.17661  1.0000
  C   C107      1.0  0.34630  0.06821  0.25026  1.0000
  C   C108      1.0  0.46935  0.04370  0.11761  1.0000
  N   N11       1.0  0.43055  0.06395  0.20770  1.0000
  C   C109      1.0  0.33449  0.04381  0.30440  1.0000
  N   N12       1.0  0.37275  0.06284  0.22342  1.0000
  C   C110      1.0  0.45023  0.02457  0.12210  1.0000
  H   H49       1.0  0.48966  0.04167  0.07726  1.0000
  C   C111      1.0  0.42627  0.03732  0.18238  1.0000
  C   C112      1.0  0.35373  0.02449  0.30407  1.0000
  H   H50       1.0  0.31390  0.04153  0.33861  1.0000
  C   C113      1.0  0.37802  0.03629  0.24919  1.0000
  H   H51       1.0  0.45204  0.00393  0.08772  1.0000
  C   C114      1.0  0.40237  0.02361  0.21723  1.0000
  H   H52       1.0  0.35143  0.00387  0.33869  1.0000
  B   B9        1.0  0.90646  0.40750  0.21486  1.0000
  O   O17       1.0  0.88745  0.39168  0.13346  1.0000
  O   O18       1.0  0.92480  0.39161  0.29994  1.0000
  C   C115      1.0  0.89418  0.36573  0.17020  1.0000
  C   C116      1.0  0.91696  0.36568  0.26976  1.0000
  C   C117      1.0  0.88114  0.34267  0.11980  1.0000
  C   C118      1.0  0.92898  0.34255  0.32628  1.0000
  C   C119      1.0  0.89307  0.31954  0.17724  1.0000
  H   H53       1.0  0.86364  0.34269  0.04154  1.0000
  C   C120      1.0  0.91610  0.31947  0.27452  1.0000
  H   H54       1.0  0.94646  0.34255  0.40471  1.0000
  O   O19       1.0  0.88502  0.29364  0.14865  1.0000
  O   O20       1.0  0.92320  0.29348  0.30824  1.0000
  B   B10       1.0  0.90396  0.27771  0.22834  1.0000
  C   C121      1.0  0.90357  0.24729  0.22502  1.0000
  C   C122      1.0  0.88341  0.23345  0.13982  1.0000
  C   C123      1.0  0.92318  0.23229  0.30598  1.0000
  C   C124      1.0  0.88291  0.20584  0.13527  1.0000
  H   H55       1.0  0.86827  0.24454  0.07364  1.0000
  C   C125      1.0  0.92255  0.20468  0.30263  1.0000
  H   H56       1.0  0.93873  0.24243  0.37528  1.0000
  C   C126      1.0  0.90245  0.19080  0.21687  1.0000
  H   H57       1.0  0.86760  0.19548  0.06567  1.0000
  H   H58       1.0  0.93729  0.19340  0.37060  1.0000
  C   C127      1.0  0.90485  0.69083  0.21289  1.0000
  C   C128      1.0  0.88469  0.70520  0.29239  1.0000
  C   C129      1.0  0.92460  0.70540  0.12965  1.0000
  C   C130      1.0  0.88423  0.73281  0.28765  1.0000
  H   H59       1.0  0.86976  0.69435  0.36153  1.0000
  C   C131      1.0  0.92442  0.73301  0.12748  1.0000
  H   H60       1.0  0.93981  0.69463  0.06340  1.0000
  C   C132      1.0  0.90416  0.74734  0.20597  1.0000
  H   H61       1.0  0.86860  0.74338  0.35195  1.0000
  H   H62       1.0  0.93981  0.74369  0.06084  1.0000
  B   B11       1.0  0.90406  0.77775  0.20462  1.0000
  O   O21       1.0  0.88359  0.79347  0.26862  1.0000
  O   O22       1.0  0.92453  0.79374  0.14085  1.0000
  C   C133      1.0  0.89167  0.81946  0.24445  1.0000
  C   C134      1.0  0.91644  0.81965  0.16676  1.0000
  C   C135      1.0  0.87820  0.84243  0.28909  1.0000
  C   C136      1.0  0.92988  0.84293  0.12529  1.0000
  C   C137      1.0  0.89171  0.86569  0.24840  1.0000
  H   H63       1.0  0.85914  0.84220  0.35055  1.0000
  C   C138      1.0  0.91646  0.86591  0.17052  1.0000
  H   H64       1.0  0.94888  0.84315  0.06295  1.0000
  O   O23       1.0  0.88365  0.89155  0.27559  1.0000
  O   O24       1.0  0.92461  0.89194  0.14830  1.0000
  B   B12       1.0  0.90416  0.90762  0.21310  1.0000
  C   C139      1.0  0.90395  0.93805  0.21374  1.0000
  C   C140      1.0  0.88352  0.95213  0.29235  1.0000
  C   C141      1.0  0.92396  0.95284  0.13470  1.0000
  C   C142      1.0  0.88318  0.97974  0.29223  1.0000
  H   H65       1.0  0.86802  0.94125  0.35685  1.0000
  C   C143      1.0  0.92338  0.98046  0.13250  1.0000
  H   H66       1.0  0.93976  0.94249  0.07066  1.0000
  C   C144      1.0  0.90302  0.99458  0.21166  1.0000
  H   H67       1.0  0.86771  0.99028  0.35760  1.0000
  H   H68       1.0  0.93843  0.99153  0.06585  1.0000
  C   C145      1.0  0.90204  0.16139  0.21307  1.0000
  C   C146      1.0  0.87785  0.14769  0.24138  1.0000
  C   C147      1.0  0.92645  0.14869  0.18246  1.0000
  C   C148      1.0  0.85354  0.16040  0.29666  1.0000
  N   N13       1.0  0.87366  0.12108  0.21396  1.0000
  C   C149      1.0  0.95080  0.16063  0.12949  1.0000
  N   N14       1.0  0.93180  0.12220  0.20792  1.0000
  C   C150      1.0  0.83435  0.14127  0.29525  1.0000
  H   H69       1.0  0.85150  0.18096  0.33278  1.0000
  C   C151      1.0  0.84706  0.11692  0.24011  1.0000
  C   C152      1.0  0.97013  0.14142  0.12974  1.0000
  H   H70       1.0  0.95308  0.18129  0.09635  1.0000
  C   C153      1.0  0.95835  0.11704  0.18361  1.0000
  H   H71       1.0  0.81371  0.14338  0.32877  1.0000
  C   C154      1.0  0.83341  0.09263  0.21245  1.0000
  H   H72       1.0  0.99072  0.14381  0.09579  1.0000
  C   C155      1.0  0.97109  0.09275  0.21751  1.0000
  C   C156      1.0  0.84619  0.06820  0.18236  1.0000
  C   C157      1.0  0.95732  0.06870  0.24798  1.0000
  C   C158      1.0  0.83435  0.04371  0.12980  1.0000
  N   N15       1.0  0.87281  0.06308  0.20607  1.0000
  C   C159      1.0  0.96983  0.04454  0.30821  1.0000
  N   N16       1.0  0.93084  0.06444  0.21648  1.0000
  C   C160      1.0  0.85377  0.02460  0.12731  1.0000
  H   H73       1.0  0.81362  0.04118  0.09841  1.0000
  C   C161      1.0  0.87820  0.03658  0.17984  1.0000
  C   C162      1.0  0.95080  0.02531  0.30474  1.0000
  H   H74       1.0  0.99022  0.04261  0.34840  1.0000
  C   C163      1.0  0.92668  0.03785  0.24370  1.0000
  H   H75       1.0  0.85148  0.00399  0.09253  1.0000
  C   C164      1.0  0.90270  0.02399  0.21108  1.0000
  H   H76       1.0  0.95278  0.00475  0.34049  1.0000
  C   C165      1.0  0.50039  0.09126  0.20966  1.0000
  C   C166      1.0  0.51402  0.07079  0.29202  1.0000
  C   C167      1.0  0.51561  0.11090  0.12991  1.0000
  C   C168      1.0  0.54162  0.07002  0.29519  1.0000
  H   H77       1.0  0.50251  0.05582  0.35659  1.0000
  C   C169      1.0  0.54320  0.11021  0.13376  1.0000
  H   H78       1.0  0.50540  0.12633  0.06134  1.0000
  C   C170      1.0  0.55682  0.08979  0.21674  1.0000
  H   H79       1.0  0.55162  0.05420  0.36188  1.0000
  H   H80       1.0  0.55446  0.12536  0.06850  1.0000
  B   B13       1.0  0.58722  0.08941  0.22019  1.0000
  O   O25       1.0  0.60305  0.07033  0.29988  1.0000
  O   O26       1.0  0.60309  0.10856  0.14174  1.0000
  C   C171      1.0  0.62903  0.07803  0.26935  1.0000
  C   C172      1.0  0.62899  0.10127  0.17463  1.0000
  C   C173      1.0  0.65221  0.06553  0.32146  1.0000
  C   C174      1.0  0.65202  0.11425  0.12423  1.0000
  C   C175      1.0  0.67527  0.07851  0.27089  1.0000
  H   H81       1.0  0.65234  0.04757  0.39513  1.0000
  C   C176      1.0  0.67518  0.10188  0.17747  1.0000
  H   H82       1.0  0.65190  0.13204  0.04904  1.0000
  O   O27       1.0  0.70127  0.07121  0.30184  1.0000
  O   O28       1.0  0.70107  0.10987  0.14913  1.0000
  B   B14       1.0  0.71705  0.09064  0.22543  1.0000
  C   C177      1.0  0.74747  0.09102  0.22377  1.0000
  C   C178      1.0  0.76255  0.07162  0.30632  1.0000
  C   C179      1.0  0.76126  0.11102  0.13785  1.0000
  C   C180      1.0  0.79015  0.07237  0.30339  1.0000
  H   H83       1.0  0.75252  0.05612  0.37602  1.0000
  C   C181      1.0  0.78886  0.11153  0.13310  1.0000
  H   H84       1.0  0.75008  0.12598  0.07068  1.0000
  C   C182      1.0  0.80399  0.09223  0.21617  1.0000
  H   H85       1.0  0.80150  0.05783  0.37253  1.0000
  H   H86       1.0  0.79908  0.12667  0.06187  1.0000
  B   B15       1.0  0.21718  0.09267  0.23640  1.0000
  O   O29       1.0  0.20113  0.07271  0.16631  1.0000
  O   O30       1.0  0.20146  0.11242  0.30918  1.0000
  C   C183      1.0  0.17526  0.08042  0.19605  1.0000
  C   C184      1.0  0.17544  0.10447  0.28276  1.0000
  C   C185      1.0  0.15205  0.06734  0.14875  1.0000
  C   C186      1.0  0.15241  0.11752  0.33093  1.0000
  C   C187      1.0  0.12904  0.08043  0.19625  1.0000
  H   H87       1.0  0.15191  0.04893  0.07939  1.0000
  C   C188      1.0  0.12919  0.10448  0.28289  1.0000
  H   H88       1.0  0.15257  0.13596  0.40003  1.0000
  O   O31       1.0  0.10307  0.07271  0.16634  1.0000
  O   O32       1.0  0.10325  0.11244  0.30904  1.0000
  B   B16       1.0  0.08732  0.09267  0.23602  1.0000
  C   C189      1.0  0.05692  0.09283  0.23156  1.0000
  C   C190      1.0  0.04268  0.07251  0.15077  1.0000
  C   C191      1.0  0.04233  0.11317  0.30768  1.0000
  C   C192      1.0  0.01509  0.07257  0.14550  1.0000
  H   H89       1.0  0.05348  0.05681  0.08862  1.0000
  C   C193      1.0  0.01473  0.11310  0.30354  1.0000
  H   H90       1.0  0.05281  0.12884  0.37374  1.0000
  C   C194      1.0  0.00047  0.09284  0.22203  1.0000
  H   H91       1.0  0.00439  0.05714  0.07913  1.0000
  H   H92       1.0  0.00372  0.12843  0.36744  1.0000
  H   H93       1.0  0.42207  0.60797  0.24017  1.0000
  H   H94       1.0  0.39069  0.57713  0.24509  1.0000
  H   H95       1.0  0.92156  0.60834  0.19810  1.0000
  H   H96       1.0  0.89086  0.57690  0.19815  1.0000
  H   H97       1.0  0.41797  0.10791  0.18432  1.0000
  H   H98       1.0  0.38680  0.07680  0.19583  1.0000
  H   H99       1.0  0.91788  0.10809  0.23506  1.0000
  H   H100      1.0  0.88678  0.07720  0.23222  1.0000
  C   C195      1.0  0.47171  0.64053  0.62985  1.0000
  C   C196      1.0  0.45262  0.65996  0.63445  1.0000
  C   C197      1.0  0.45994  0.61615  0.68409  1.0000
  C   C198      1.0  0.42839  0.64818  0.69068  1.0000
  N   N17       1.0  0.43361  0.62159  0.71443  1.0000
  C   C199      1.0  0.45906  0.56746  0.74233  1.0000
  C   C200      1.0  0.47201  0.54316  0.79680  1.0000
  C   C201      1.0  0.45302  0.52386  0.79596  1.0000
  C   C202      1.0  0.42854  0.53650  0.74170  1.0000
  N   N18       1.0  0.43243  0.56320  0.71656  1.0000
  C   C203      1.0  0.37986  0.53540  0.68626  1.0000
  C   C204      1.0  0.35524  0.52369  0.63478  1.0000
  C   C205      1.0  0.33605  0.54305  0.63837  1.0000
  C   C206      1.0  0.34821  0.56734  0.69186  1.0000
  N   N19       1.0  0.37478  0.56189  0.71471  1.0000
  C   C207      1.0  0.34950  0.61596  0.75393  1.0000
  C   C208      1.0  0.33677  0.64011  0.81199  1.0000
  C   C209      1.0  0.35580  0.65937  0.81263  1.0000
  C   C210      1.0  0.38006  0.64692  0.75442  1.0000
  N   N20       1.0  0.37601  0.62031  0.72627  1.0000
  C   C211      1.0  0.33574  0.59185  0.72336  1.0000
  C   C212      1.0  0.40442  0.52267  0.71252  1.0000
  C   C213      1.0  0.47266  0.59163  0.71170  1.0000
  C   C214      1.0  0.40402  0.66083  0.72326  1.0000
  H   H101      1.0  0.31528  0.54083  0.60714  1.0000
  H   H102      1.0  0.35272  0.50312  0.59966  1.0000
  H   H103      1.0  0.45528  0.50321  0.82928  1.0000
  H   H104      1.0  0.49265  0.54116  0.83133  1.0000
  H   H105      1.0  0.49214  0.64277  0.59207  1.0000
  H   H106      1.0  0.45498  0.68064  0.60210  1.0000
  H   H107      1.0  0.35367  0.67987  0.84949  1.0000
  H   H108      1.0  0.31622  0.64198  0.84765  1.0000
  B   B17       1.0  0.58889  0.59066  0.69952  1.0000
  O   O33       1.0  0.60491  0.57059  0.63309  1.0000
  O   O34       1.0  0.60453  0.61102  0.76850  1.0000
  C   C215      1.0  0.63082  0.57875  0.66321  1.0000
  C   C216      1.0  0.63054  0.60315  0.74596  1.0000
  C   C217      1.0  0.65414  0.56570  0.62067  1.0000
  C   C218      1.0  0.65346  0.61645  0.79664  1.0000
  C   C219      1.0  0.67709  0.57907  0.67041  1.0000
  H   H109      1.0  0.65445  0.54706  0.55385  1.0000
  C   C220      1.0  0.67674  0.60334  0.75450  1.0000
  H   H110      1.0  0.65317  0.63509  0.86352  1.0000
  O   O35       1.0  0.70319  0.57134  0.64808  1.0000
  O   O36       1.0  0.70255  0.61142  0.78588  1.0000
  B   B18       1.0  0.71875  0.59153  0.71964  1.0000
  C   C221      1.0  0.40468  0.49326  0.71079  1.0000
  C   C222      1.0  0.38534  0.47839  0.79563  1.0000
  C   C223      1.0  0.42443  0.47922  0.62547  1.0000
  C   C224      1.0  0.38575  0.45077  0.79535  1.0000
  H   H111      1.0  0.37036  0.48887  0.86553  1.0000
  C   C225      1.0  0.42496  0.45160  0.62624  1.0000
  H   H112      1.0  0.43902  0.49037  0.55539  1.0000
  C   C226      1.0  0.40563  0.43675  0.71107  1.0000
  H   H113      1.0  0.37081  0.43985  0.86432  1.0000
  H   H114      1.0  0.44028  0.44132  0.55745  1.0000
  B   B19       1.0  0.40601  0.40631  0.71157  1.0000
  O   O37       1.0  0.38777  0.39029  0.79754  1.0000
  O   O38       1.0  0.42444  0.39063  0.62606  1.0000
  C   C227      1.0  0.39505  0.36441  0.76276  1.0000
  C   C228      1.0  0.41731  0.36460  0.66011  1.0000
  C   C229      1.0  0.38284  0.34119  0.81752  1.0000
  C   C230      1.0  0.42951  0.34159  0.60366  1.0000
  C   C231      1.0  0.39497  0.31819  0.76053  1.0000
  H   H115      1.0  0.36575  0.34105  0.89819  1.0000
  C   C232      1.0  0.41736  0.31836  0.65898  1.0000
  H   H116      1.0  0.44650  0.34175  0.52217  1.0000
  O   O39       1.0  0.38753  0.29220  0.79197  1.0000
  O   O40       1.0  0.42456  0.29243  0.62467  1.0000
  B   B20       1.0  0.40591  0.27647  0.70709  1.0000
  C   C233      1.0  0.40571  0.24606  0.70478  1.0000
  C   C234      1.0  0.38604  0.23147  0.78841  1.0000
  C   C235      1.0  0.42534  0.23184  0.61970  1.0000
  C   C236      1.0  0.38613  0.20385  0.78840  1.0000
  H   H117      1.0  0.37091  0.24197  0.85754  1.0000
  C   C237      1.0  0.42532  0.20423  0.61893  1.0000
  H   H118      1.0  0.44047  0.24260  0.55134  1.0000
  C   C238      1.0  0.40582  0.18961  0.70387  1.0000
  H   H119      1.0  0.37136  0.19287  0.85811  1.0000
  H   H120      1.0  0.44018  0.19352  0.54952  1.0000
  B   B21       1.0  0.21951  0.59208  0.71414  1.0000
  O   O41       1.0  0.20383  0.61102  0.63252  1.0000
  O   O42       1.0  0.20353  0.57292  0.79199  1.0000
  C   C239      1.0  0.17782  0.60332  0.66063  1.0000
  C   C240      1.0  0.17762  0.58032  0.75758  1.0000
  C   C241      1.0  0.15484  0.61577  0.60504  1.0000
  C   C242      1.0  0.15438  0.56776  0.80866  1.0000
  C   C243      1.0  0.13161  0.60329  0.65669  1.0000
  H   H121      1.0  0.15503  0.63341  0.52847  1.0000
  C   C244      1.0  0.13138  0.58025  0.75333  1.0000
  H   H122      1.0  0.15422  0.55016  0.88565  1.0000
  O   O43       1.0  0.10573  0.61102  0.62488  1.0000
  O   O44       1.0  0.10534  0.57292  0.78421  1.0000
  B   B22       1.0  0.08969  0.59227  0.70594  1.0000
  B   B23       1.0  0.40392  0.77725  0.72018  1.0000
  O   O45       1.0  0.42336  0.79280  0.79960  1.0000
  O   O46       1.0  0.38497  0.79341  0.64203  1.0000
  C   C245      1.0  0.41631  0.81889  0.76878  1.0000
  C   C246      1.0  0.39295  0.81925  0.67463  1.0000
  C   C247      1.0  0.42949  0.84183  0.82042  1.0000
  C   C248      1.0  0.38050  0.84257  0.62511  1.0000
  C   C249      1.0  0.41714  0.86517  0.76994  1.0000
  H   H123      1.0  0.44746  0.84154  0.89458  1.0000
  C   C250      1.0  0.39358  0.86549  0.67771  1.0000
  H   H124      1.0  0.36252  0.84287  0.55114  1.0000
  O   O47       1.0  0.42523  0.89106  0.80051  1.0000
  O   O48       1.0  0.38623  0.89154  0.64915  1.0000
  B   B24       1.0  0.40599  0.90714  0.72487  1.0000
  C   C251      1.0  0.83514  0.59214  0.72663  1.0000
  C   C252      1.0  0.84853  0.61646  0.69597  1.0000
  C   C253      1.0  0.84833  0.56782  0.75345  1.0000
  C   C254      1.0  0.83547  0.64059  0.63953  1.0000
  N   N21       1.0  0.87519  0.62087  0.71981  1.0000
  C   C255      1.0  0.83711  0.54302  0.80496  1.0000
  N   N22       1.0  0.87489  0.56317  0.72528  1.0000
  C   C256      1.0  0.85448  0.65987  0.63548  1.0000
  H   H125      1.0  0.81474  0.64244  0.60675  1.0000
  C   C257      1.0  0.87906  0.64746  0.69042  1.0000
  C   C258      1.0  0.85678  0.52416  0.80146  1.0000
  H   H126      1.0  0.81661  0.54010  0.83972  1.0000
  C   C259      1.0  0.88081  0.53670  0.74797  1.0000
  H   H127      1.0  0.85216  0.68035  0.59798  1.0000
  C   C260      1.0  0.90312  0.66152  0.71708  1.0000
  H   H128      1.0  0.85493  0.50337  0.83267  1.0000
  C   C261      1.0  0.90548  0.52460  0.71597  1.0000
  C   C262      1.0  0.92788  0.64934  0.74695  1.0000
  C   C263      1.0  0.92929  0.53879  0.68545  1.0000
  C   C264      1.0  0.95216  0.66187  0.79764  1.0000
  N   N23       1.0  0.93368  0.62289  0.72402  1.0000
  C   C265      1.0  0.95358  0.52649  0.62629  1.0000
  N   N24       1.0  0.93325  0.56535  0.71498  1.0000
  C   C266      1.0  0.97183  0.64300  0.79931  1.0000
  H   H129      1.0  0.95413  0.68267  0.82804  1.0000
  C   C267      1.0  0.96037  0.61824  0.74885  1.0000
  C   C268      1.0  0.97256  0.54577  0.62789  1.0000
  H   H130      1.0  0.95572  0.50605  0.58823  1.0000
  C   C269      1.0  0.95978  0.56979  0.68756  1.0000
  H   H131      1.0  0.99246  0.64589  0.83222  1.0000
  C   C270      1.0  0.97336  0.59397  0.71887  1.0000
  H   H132      1.0  0.99310  0.54400  0.59148  1.0000
  C   C271      1.0  0.40611  0.16021  0.70515  1.0000
  C   C272      1.0  0.43076  0.14782  0.73467  1.0000
  C   C273      1.0  0.38196  0.14636  0.67805  1.0000
  C   C274      1.0  0.45509  0.16009  0.78673  1.0000
  N   N25       1.0  0.43639  0.12135  0.70999  1.0000
  C   C275      1.0  0.35752  0.15892  0.62212  1.0000
  N   N26       1.0  0.37783  0.11989  0.70925  1.0000
  C   C276      1.0  0.47465  0.14109  0.78684  1.0000
  H   H133      1.0  0.45720  0.18078  0.81994  1.0000
  C   C277      1.0  0.46301  0.11644  0.73544  1.0000
  C   C278      1.0  0.33831  0.13987  0.62715  1.0000
  H   H134      1.0  0.35543  0.17936  0.58374  1.0000
  C   C279      1.0  0.35111  0.11577  0.68584  1.0000
  H   H135      1.0  0.49531  0.14377  0.81976  1.0000
  C   C280      1.0  0.47580  0.09195  0.70803  1.0000
  H   H136      1.0  0.31761  0.14187  0.59393  1.0000
  C   C281      1.0  0.33750  0.09178  0.72106  1.0000
  C   C282      1.0  0.46197  0.06775  0.68104  1.0000
  C   C283      1.0  0.35051  0.06756  0.75305  1.0000
  C   C284      1.0  0.47448  0.04324  0.62707  1.0000
  N   N27       1.0  0.43535  0.06378  0.70809  1.0000
  C   C285      1.0  0.33917  0.04321  0.81094  1.0000
  N   N28       1.0  0.37694  0.06249  0.72343  1.0000
  C   C286      1.0  0.45520  0.02423  0.62759  1.0000
  H   H137      1.0  0.49508  0.04097  0.59318  1.0000
  C   C287      1.0  0.43102  0.03713  0.68333  1.0000
  C   C288      1.0  0.35861  0.02412  0.80862  1.0000
  H   H138      1.0  0.31881  0.04079  0.84963  1.0000
  C   C289      1.0  0.38262  0.03608  0.75004  1.0000
  H   H139      1.0  0.45715  0.00358  0.59333  1.0000
  C   C290      1.0  0.40699  0.02347  0.71671  1.0000
  H   H140      1.0  0.35667  0.00354  0.84407  1.0000
  B   B25       1.0  0.90831  0.40829  0.72007  1.0000
  O   O49       1.0  0.88874  0.39274  0.64208  1.0000
  O   O50       1.0  0.92718  0.39216  0.79930  1.0000
  C   C291      1.0  0.89549  0.36670  0.67562  1.0000
  C   C292      1.0  0.91888  0.36629  0.76953  1.0000
  C   C293      1.0  0.88194  0.34385  0.62659  1.0000
  C   C294      1.0  0.93101  0.34288  0.82099  1.0000
  C   C295      1.0  0.89395  0.32048  0.67903  1.0000
  H   H141      1.0  0.86401  0.34422  0.55205  1.0000
  C   C296      1.0  0.91755  0.32000  0.77093  1.0000
  H   H142      1.0  0.94906  0.34251  0.89435  1.0000
  O   O51       1.0  0.88550  0.29469  0.64970  1.0000
  O   O52       1.0  0.92456  0.29386  0.80061  1.0000
  B   B26       1.0  0.90467  0.27841  0.72463  1.0000
  B   B27       1.0  0.90333  0.77786  0.70944  1.0000
  O   O53       1.0  0.88501  0.79399  0.79205  1.0000
  O   O54       1.0  0.92204  0.79342  0.62479  1.0000
  C   C297      1.0  0.89267  0.81986  0.75719  1.0000
  C   C298      1.0  0.91517  0.81949  0.65663  1.0000
  C   C299      1.0  0.88063  0.84321  0.80936  1.0000
  C   C300      1.0  0.92796  0.84236  0.60125  1.0000
  C   C301      1.0  0.89332  0.86609  0.75312  1.0000
  H   H143      1.0  0.86323  0.84356  0.88740  1.0000
  C   C302      1.0  0.91613  0.86571  0.65522  1.0000
  H   H144      1.0  0.94536  0.84204  0.52324  1.0000
  O   O55       1.0  0.88635  0.89216  0.78418  1.0000
  O   O56       1.0  0.92428  0.89156  0.62445  1.0000
  B   B28       1.0  0.90568  0.90771  0.70482  1.0000
  C   C303      1.0  0.90627  0.93812  0.70750  1.0000
  C   C304      1.0  0.88656  0.95250  0.79088  1.0000
  C   C305      1.0  0.92647  0.95256  0.62777  1.0000
  C   C306      1.0  0.88695  0.98011  0.79362  1.0000
  H   H145      1.0  0.87109  0.94183  0.85694  1.0000
  C   C307      1.0  0.92679  0.98018  0.63016  1.0000
  H   H146      1.0  0.94178  0.94197  0.56083  1.0000
  C   C308      1.0  0.90698  0.99459  0.71247  1.0000
  H   H147      1.0  0.87207  0.99088  0.86278  1.0000
  H   H148      1.0  0.94218  0.99108  0.56555  1.0000
  C   C309      1.0  0.90639  0.16203  0.71419  1.0000
  C   C310      1.0  0.88241  0.14805  0.74364  1.0000
  C   C311      1.0  0.93097  0.14946  0.68611  1.0000
  C   C312      1.0  0.85816  0.16039  0.80302  1.0000
  N   N29       1.0  0.87845  0.12145  0.71543  1.0000
  C   C313      1.0  0.95559  0.16133  0.63732  1.0000
  N   N30       1.0  0.93612  0.12289  0.71169  1.0000
  C   C314      1.0  0.83924  0.14103  0.80444  1.0000
  H   H149      1.0  0.85604  0.18089  0.83976  1.0000
  C   C315      1.0  0.85196  0.11701  0.74448  1.0000
  C   C316      1.0  0.97484  0.14202  0.64058  1.0000
  H   H150      1.0  0.95811  0.18199  0.60442  1.0000
  C   C317      1.0  0.96273  0.11754  0.69050  1.0000
  H   H151      1.0  0.81884  0.14273  0.84373  1.0000
  C   C318      1.0  0.83831  0.09291  0.71255  1.0000
  H   H152      1.0  0.99564  0.14438  0.61152  1.0000
  C   C319      1.0  0.97521  0.09297  0.72062  1.0000
  C   C320      1.0  0.85099  0.06855  0.68027  1.0000
  C   C321      1.0  0.96148  0.06880  0.74956  1.0000
  C   C322      1.0  0.83909  0.04425  0.62498  1.0000
  N   N31       1.0  0.87744  0.06318  0.70744  1.0000
  C   C323      1.0  0.97424  0.04453  0.80652  1.0000
  N   N32       1.0  0.93496  0.06450  0.72056  1.0000
  C   C324      1.0  0.85829  0.02491  0.62570  1.0000
  H   H153      1.0  0.81849  0.04198  0.58979  1.0000
  C   C325      1.0  0.88264  0.03667  0.68124  1.0000
  C   C326      1.0  0.95522  0.02526  0.80465  1.0000
  H   H154      1.0  0.99479  0.04257  0.84316  1.0000
  C   C327      1.0  0.93097  0.03783  0.74640  1.0000
  H   H155      1.0  0.85594  0.00430  0.59141  1.0000
  C   C328      1.0  0.90703  0.02398  0.71342  1.0000
  H   H156      1.0  0.95733  0.00467  0.83987  1.0000
  B   B29       1.0  0.59231  0.09245  0.71483  1.0000
  O   O57       1.0  0.60808  0.07296  0.79112  1.0000
  O   O58       1.0  0.60827  0.11218  0.64188  1.0000
  C   C329      1.0  0.63407  0.08069  0.76225  1.0000
  C   C330      1.0  0.63417  0.10445  0.67252  1.0000
  C   C331      1.0  0.65712  0.06774  0.81191  1.0000
  C   C332      1.0  0.65736  0.11751  0.62542  1.0000
  C   C333      1.0  0.68032  0.08065  0.76355  1.0000
  H   H157      1.0  0.65698  0.04953  0.88321  1.0000
  C   C334      1.0  0.68040  0.10459  0.67572  1.0000
  H   H158      1.0  0.65749  0.13581  0.55503  1.0000
  O   O59       1.0  0.70626  0.07281  0.79224  1.0000
  O   O60       1.0  0.70637  0.11245  0.64852  1.0000
  B   B30       1.0  0.72215  0.09260  0.72010  1.0000
  C   C335      1.0  0.75254  0.09260  0.71788  1.0000
  C   C336      1.0  0.76710  0.07247  0.79688  1.0000
  C   C337      1.0  0.76676  0.11282  0.63665  1.0000
  C   C338      1.0  0.79469  0.07263  0.79515  1.0000
  H   H159      1.0  0.75661  0.05690  0.86330  1.0000
  C   C339      1.0  0.79436  0.11288  0.63411  1.0000
  H   H160      1.0  0.75594  0.12833  0.57208  1.0000
  C   C340      1.0  0.80894  0.09280  0.71367  1.0000
  H   H161      1.0  0.80571  0.05745  0.86081  1.0000
  H   H162      1.0  0.80510  0.12818  0.56732  1.0000
  B   B31       1.0  0.22117  0.09035  0.73202  1.0000
  O   O61       1.0  0.20535  0.07142  0.64963  1.0000
  O   O62       1.0  0.20526  0.10857  0.81677  1.0000
  C   C341      1.0  0.17937  0.07842  0.68302  1.0000
  C   C342      1.0  0.17934  0.10103  0.78338  1.0000
  C   C343      1.0  0.15628  0.06585  0.62816  1.0000
  C   C344      1.0  0.15622  0.11340  0.83610  1.0000
  C   C345      1.0  0.13314  0.07806  0.68207  1.0000
  H   H163      1.0  0.15637  0.04849  0.54916  1.0000
  C   C346      1.0  0.13316  0.10095  0.78003  1.0000
  H   H164      1.0  0.15611  0.13087  0.91427  1.0000
  O   O63       1.0  0.10715  0.07052  0.64906  1.0000
  O   O64       1.0  0.10724  0.10851  0.80921  1.0000
  B   B32       1.0  0.09137  0.08967  0.72719  1.0000
  C   C347      1.0  0.06102  0.09045  0.72396  1.0000
  C   C348      1.0  0.04594  0.07134  0.63799  1.0000
  C   C349      1.0  0.04733  0.11066  0.80755  1.0000
  C   C350      1.0  0.01836  0.07245  0.63554  1.0000
  H   H165      1.0  0.05598  0.05573  0.57017  1.0000
  C   C351      1.0  0.01974  0.11156  0.80680  1.0000
  H   H166      1.0  0.05854  0.12545  0.87688  1.0000
  C   C352      1.0  0.00462  0.09247  0.72070  1.0000
  H   H167      1.0  0.00697  0.05801  0.56511  1.0000
  H   H168      1.0  0.00953  0.12673  0.87697  1.0000
  H   H169      1.0  0.41948  0.60769  0.74136  1.0000
  H   H170      1.0  0.38910  0.57575  0.73985  1.0000
  H   H171      1.0  0.92004  0.60835  0.69901  1.0000
  H   H172      1.0  0.88845  0.57771  0.69937  1.0000
  H   H173      1.0  0.42262  0.10690  0.68587  1.0000
  H   H174      1.0  0.39053  0.07671  0.69279  1.0000
  H   H175      1.0  0.92188  0.10893  0.73536  1.0000
  H   H176      1.0  0.89158  0.07704  0.73593  1.0000
  C   C353      1.0  0.92983  0.47535  0.81569  1.0000
  C   C354      1.0  0.91260  0.49219  0.73067  1.0000
  C  Sn1       1.0  0.89152  0.48167  0.63896  1.0000
  C  Sn2       1.0  0.88768  0.45376  0.63252  1.0000
  C   C355      1.0  0.90502  0.43709  0.71811  1.0000
  C   C356      1.0  0.92605  0.44783  0.80946  1.0000
  H   H177      1.0  0.94609  0.48366  0.88645  1.0000
  O  Te1       1.0  0.87450  0.49877  0.55471  1.0000
  O  Te2       1.0  0.86678  0.44272  0.54185  1.0000
  H   H178      1.0  0.93938  0.43479  0.87536  1.0000
  Mg  Mg1       1.0  0.84889  0.47422  0.44794  1.0000
  C   C357      1.0  0.28752  0.11534  0.81362  1.0000
  C   C358      1.0  0.30491  0.09642  0.75034  1.0000
  C  Sn3       1.0  0.29505  0.07444  0.66446  1.0000
  C  Sn4       1.0  0.26727  0.07141  0.64167  1.0000
  C   C359      1.0  0.25004  0.09046  0.70536  1.0000
  C   C360      1.0  0.26012  0.11237  0.79114  1.0000
  H   H179      1.0  0.29532  0.13230  0.87991  1.0000
  O  Te3       1.0  0.31270  0.05572  0.60210  1.0000
  O  Te4       1.0  0.25688  0.04964  0.55628  1.0000
  H   H180      1.0  0.24665  0.12703  0.84003  1.0000
  Mg  Mg2       1.0  0.28895  0.02945  0.49450  1.0000
  C   C361      1.0  0.27028  0.56893  0.81463  1.0000
  C   C362      1.0  0.25299  0.58747  0.74517  1.0000
  C  Sn5       1.0  0.26295  0.60875  0.65380  1.0000
  C  Sn6       1.0  0.29075  0.61147  0.63173  1.0000
  C   C363      1.0  0.30788  0.59281  0.70163  1.0000
  C   C364      1.0  0.29770  0.57160  0.79287  1.0000
  H   H181      1.0  0.26240  0.55251  0.88515  1.0000
  O  Te5       1.0  0.24540  0.62709  0.58530  1.0000
  O  Te6       1.0  0.30124  0.63255  0.54094  1.0000
  H   H182      1.0  0.31109  0.55724  0.84655  1.0000
  Mg  Mg3       1.0  0.26927  0.65243  0.47181  1.0000
  C   C365      1.0  0.42813  0.72695  0.32595  1.0000
  C   C366      1.0  0.41179  0.74411  0.23677  1.0000
  C  Sn7       1.0  0.39087  0.73402  0.14192  1.0000
  C  Sn8       1.0  0.38628  0.70622  0.13654  1.0000
  C   C367      1.0  0.40273  0.68922  0.22630  1.0000
  C   C368      1.0  0.42361  0.69953  0.32076  1.0000
  H   H183      1.0  0.44428  0.73493  0.39912  1.0000
  O  Te7       1.0  0.37473  0.75144  0.05352  1.0000
  O  Te8       1.0  0.36551  0.69560  0.04279  1.0000
  H   H184      1.0  0.43625  0.68624  0.38988  1.0000
  Mg  Mg4       1.0  0.34971  0.72741  0.94368  1.0000
  C   C369      1.0  0.92898  0.21259  0.81055  1.0000
  C   C370      1.0  0.91040  0.19474  0.74542  1.0000
  C  Sn9       1.0  0.88851  0.20405  0.65692  1.0000
  C  Sn10      1.0  0.88521  0.23175  0.63333  1.0000
  C   C371      1.0  0.90392  0.24944  0.69888  1.0000
  C   C372      1.0  0.92575  0.23992  0.78729  1.0000
  H   H185      1.0  0.94587  0.20522  0.87888  1.0000
  O  Te9       1.0  0.87013  0.18594  0.59274  1.0000
  O  Te10      1.0  0.86352  0.24158  0.54532  1.0000
  H   H186      1.0  0.94014  0.25374  0.83761  1.0000
  Mg  Mg5       1.0  0.84385  0.20902  0.48180  1.0000
  C   C373      1.0  0.02340  0.57010  0.80703  1.0000
  C   C374      1.0  0.00605  0.58940  0.74680  1.0000
  C  Sn11      1.0  0.01581  0.61093  0.65684  1.0000
  C  Sn12      1.0  0.04345  0.61313  0.62678  1.0000
  C   C375      1.0  0.06064  0.59370  0.68747  1.0000
  C   C376      1.0  0.05066  0.57224  0.77739  1.0000
  H   H187      1.0  0.01568  0.55348  0.87653  1.0000
  O  Te11      1.0  0.99821  0.63005  0.59761  1.0000
  O  Te12      1.0  0.05373  0.63444  0.53718  1.0000
  H   H188      1.0  0.06409  0.55729  0.82391  1.0000
  Mg  Mg6       1.0  0.02178  0.65543  0.48209  1.0000
  C   C377      1.0  0.38256  0.47361  0.30064  1.0000
  C   C378      1.0  0.40170  0.49120  0.24029  1.0000
  C  Sn13      1.0  0.42340  0.48167  0.15216  1.0000
  C  Sn14      1.0  0.42593  0.45400  0.12408  1.0000
  C   C379      1.0  0.40666  0.43656  0.18487  1.0000
  C   C380      1.0  0.38503  0.44631  0.27294  1.0000
  H   H189      1.0  0.36582  0.48115  0.36871  1.0000
  O  Te13      1.0  0.44235  0.49952  0.09279  1.0000
  O  Te14      1.0  0.44741  0.44394  0.03634  1.0000
  H   H190      1.0  0.37021  0.43269  0.31956  1.0000
  Mg  Mg7       1.0  0.46882  0.47619  0.98024  1.0000
  C   C381      1.0  0.42765  0.71130  0.81164  1.0000
  C   C382      1.0  0.40852  0.69357  0.75148  1.0000
  C  Sn15      1.0  0.38660  0.70296  0.66365  1.0000
  C  Sn16      1.0  0.38382  0.73061  0.63569  1.0000
  C   C383      1.0  0.40307  0.74818  0.69629  1.0000
  C   C384      1.0  0.42493  0.73858  0.78407  1.0000
  H   H191      1.0  0.44457  0.70387  0.87948  1.0000
  O  Te15      1.0  0.36767  0.68497  0.60445  1.0000
  O  Te16      1.0  0.36211  0.74052  0.54824  1.0000
  H   H192      1.0  0.43974  0.75230  0.83055  1.0000
  Mg  Mg8       1.0  0.34158  0.70812  0.49229  1.0000
  C   C385      1.0  0.42980  0.97339  0.81659  1.0000
  C   C386      1.0  0.41307  0.99081  0.73227  1.0000
  C  Sn17      1.0  0.39132  0.98104  0.64349  1.0000
  C  Sn18      1.0  0.38627  0.95331  0.63932  1.0000
  C   C387      1.0  0.40312  0.93605  0.72418  1.0000
  C   C388      1.0  0.42484  0.94604  0.81259  1.0000
  H   H193      1.0  0.44659  0.98111  0.88507  1.0000
  O  Te17      1.0  0.37480  0.99872  0.55989  1.0000
  O  Te18      1.0  0.36467  0.94302  0.55160  1.0000
  H   H194      1.0  0.43778  0.93254  0.87795  1.0000
  Mg  Mg9       1.0  0.34788  0.97511  0.45747  1.0000
  C   C389      1.0  0.87987  0.72680  0.80706  1.0000
  C   C390      1.0  0.89818  0.74427  0.73641  1.0000
  C  Sn19      1.0  0.91918  0.73450  0.64298  1.0000
  C  Sn20      1.0  0.92185  0.70672  0.62004  1.0000
  C   C391      1.0  0.90342  0.68941  0.69113  1.0000
  C   C392      1.0  0.88248  0.69939  0.78444  1.0000
  H   H195      1.0  0.86366  0.73452  0.87918  1.0000
  O  Te19      1.0  0.93731  0.75224  0.57332  1.0000
  O  Te20      1.0  0.94265  0.69643  0.52718  1.0000
  H   H196      1.0  0.86830  0.68586  0.83904  1.0000
  Mg  Mg10      1.0  0.96230  0.72860  0.45709  1.0000
  C   C393      1.0  0.78495  0.61529  0.81828  1.0000
  C   C394      1.0  0.80243  0.59623  0.75776  1.0000
  C  Sn21      1.0  0.79278  0.57453  0.66833  1.0000
  C  Sn22      1.0  0.76511  0.57193  0.63911  1.0000
  C   C395      1.0  0.74778  0.59113  0.70009  1.0000
  C   C396      1.0  0.75765  0.61275  0.78947  1.0000
  H   H197      1.0  0.79258  0.63204  0.88736  1.0000
  O  Te21      1.0  0.81052  0.55566  0.60879  1.0000
  O  Te22      1.0  0.75493  0.55045  0.55006  1.0000
  H   H198      1.0  0.74411  0.62752  0.83623  1.0000
  Mg  Mg11      1.0  0.78706  0.52991  0.49426  1.0000
  C   C397      1.0  0.52613  0.11530  0.61476  1.0000
  C   C398      1.0  0.50856  0.09634  0.67769  1.0000
  C  Sn23      1.0  0.51812  0.07499  0.76982  1.0000
  C  Sn24      1.0  0.54578  0.07262  0.79933  1.0000
  C   C399      1.0  0.56319  0.09170  0.73594  1.0000
  C   C400      1.0  0.55341  0.11298  0.64387  1.0000
  H   H199      1.0  0.51857  0.13177  0.54360  1.0000
  O  Te23      1.0  0.50029  0.05622  0.83173  1.0000
  O  Te24      1.0  0.55586  0.05148  0.89106  1.0000
  H   H200      1.0  0.56702  0.12766  0.59526  1.0000
  Mg  Mg12      1.0  0.52364  0.03097  0.94946  1.0000
  C   C401      1.0  0.52203  0.56832  0.60707  1.0000
  C   C402      1.0  0.50511  0.58536  0.69201  1.0000
  C  Sn25      1.0  0.51551  0.60667  0.78193  1.0000
  C  Sn26      1.0  0.54335  0.61094  0.78662  1.0000
  C   C403      1.0  0.56010  0.59379  0.70113  1.0000
  C   C404      1.0  0.54949  0.57253  0.61159  1.0000
  H   H201      1.0  0.51382  0.55188  0.53771  1.0000
  O  Te25      1.0  0.49833  0.62350  0.86613  1.0000
  O  Te26      1.0  0.55427  0.63209  0.87548  1.0000
  H   H202      1.0  0.56259  0.55935  0.54575  1.0000
  Mg  Mg13      1.0  0.52271  0.64956  0.97007  1.0000
  C   C405      1.0  0.26892  0.11528  0.33061  1.0000
  C   C406      1.0  0.25093  0.09921  0.24466  1.0000
  C  Sn27      1.0  0.26003  0.07818  0.14853  1.0000
  C  Sn28      1.0  0.28767  0.07319  0.13853  1.0000
  C   C407      1.0  0.30551  0.08937  0.22508  1.0000
  C   C408      1.0  0.29618  0.11036  0.32087  1.0000
  H   H203      1.0  0.26171  0.13151  0.40480  1.0000
  O  Te27      1.0  0.24179  0.06232  0.06341  1.0000
  O  Te28      1.0  0.29731  0.05230  0.04341  1.0000
  H   H204      1.0  0.31012  0.12279  0.38748  1.0000
  Mg  Mg14      1.0  0.26536  0.03623  0.95002  1.0000
  C   C409      1.0  0.42590  0.21132  0.10849  1.0000
  C   C410      1.0  0.40877  0.19384  0.18958  1.0000
  C  Sn29      1.0  0.38759  0.20361  0.28143  1.0000
  C  Sn30      1.0  0.38352  0.23141  0.29203  1.0000
  C   C411      1.0  0.40075  0.24873  0.21035  1.0000
  C   C412      1.0  0.42189  0.23874  0.11882  1.0000
  H   H205      1.0  0.44224  0.20359  0.03759  1.0000
  O  Te29      1.0  0.37067  0.18587  0.36174  1.0000
  O  Te30      1.0  0.36250  0.24171  0.38293  1.0000
  H   H206      1.0  0.43514  0.25228  0.05596  1.0000
  Mg  Mg15      1.0  0.34484  0.20953  0.47055  1.0000
  C   C413      1.0  0.93066  0.45860  0.30528  1.0000
  C   C414      1.0  0.91186  0.44109  0.23910  1.0000
  C  Sn31      1.0  0.89033  0.45079  0.14886  1.0000
  C  Sn32      1.0  0.88763  0.47854  0.12459  1.0000
  C   C415      1.0  0.90657  0.49589  0.19120  1.0000
  C   C416      1.0  0.92803  0.48597  0.28135  1.0000
  H   H207      1.0  0.94728  0.45092  0.37495  1.0000
  O  Te31      1.0  0.87171  0.43303  0.08365  1.0000
  O  Te32      1.0  0.86631  0.48878  0.03485  1.0000
  H   H208      1.0  0.94260  0.49953  0.33248  1.0000
  Mg  Mg16      1.0  0.84685  0.45657  0.97043  1.0000
