data_image0
_chemical_formula_structural       C4NC4NC4NC4NZnC4H8BO2C5HCHO2B2O2C5HCHO2B2O2C5HCHO2B2O2C5HCHO2BC4NCNCHC2HCHCHC4NCNCHC2HCHCHZnC4NCNCHC2HCHCHC4NCNCHC2HCHCHZnBO2C5HCHO2B2O2C5HCHO2BC4NCNCHC2HCHCHC4NCNCHC2HCHCHBO2C5HCHO2B2O2C5HCHO2BZnC4NC4NC4NC4NZnC4H8BO2C5HCHO2B2O2C5HCHO2B2O2C5HCHO2B2O2C5HCHO2BC4NCNCHC2HCHCHC4NCNCHC2HCHCHZnC4NCNCHC2HCHCHC4NCNCHC2HCHCHZnBO2C5HCHO2B2O2C5HCHO2BC4NCNCHC2HCHCHC4NCNCHC2HCHCHBO2C5HCHO2B2O2C5HCHO2BZnSnCSn2CSnTe4Mg2SnCSn2CSnTe4Mg2SnCSn2CSnTe4Mg2SnCSn2CSnTe4Mg2SnCSn2CSnTe4Mg2SnCSn2CSnTe4Mg2SnCSn2CSnTe4Mg2SnCSn2CSnTe4Mg2SnCSn2CSnTe4Mg2SnCSn2CSnTe4Mg2SnCSn2CSnTe4Mg2SnCSn2CSnTe4Mg2SnCSn2CSnTe4Mg2SnCSn2CSnTe4Mg2SnCSn2CSnTe4Mg2SnCSn2CSnTe4Mg2SnCSn2CSnTe4Mg2SnCSn2CSnTe4Mg2SnCSn2CSnTe4Mg2SnCSn2CSnTe4Mg2SnCSn2CSnTe4Mg2SnCSn2CSnTe4Mg2SnCSn2CSnTe4Mg2SnCSn2CSnTe4Mg2SnCSn2CSnTe4Mg2SnCSn2CSnTe4Mg2SnCSn2CSnTe4Mg2SnCSn2CSnTe4Mg2SnCSn2CSnTe4Mg2SnCSn2CSnTe4Mg2SnCSn2CSnTe4Mg2SnCSn2CSnTe4Mg2
_chemical_formula_sum              "C320 N32 Zn8 H96 B32 O64 Sn128 Te128 Mg64"
_cell_length_a       50.3585
_cell_length_b       50.366
_cell_length_c       8.13537
_cell_angle_alpha    89.3615
_cell_angle_beta     89.5823
_cell_angle_gamma    90.4433

_symmetry_space_group_name_H-M    'P1'
_space_group_IT_number       1

loop_
  _space_group_symop_operation_xyz
  'x, y, z'

loop_
  _atom_site_type_symbol
  _atom_site_label
  _atom_site_symmetry_multiplicity
  _atom_site_fract_x
  _atom_site_fract_y
  _atom_site_fract_z
  _atom_site_occupancy
  C   C1        1.0  0.47518  0.63973  0.16753  1.0000
  C   C2        1.0  0.45617  0.65900  0.16697  1.0000
  C   C3        1.0  0.46245  0.61526  0.22025  1.0000
  C   C4        1.0  0.43157  0.64660  0.21994  1.0000
  N   N1        1.0  0.43570  0.61977  0.24540  1.0000
  C   C5        1.0  0.46190  0.56641  0.27664  1.0000
  C   C6        1.0  0.47414  0.54168  0.32398  1.0000
  C   C7        1.0  0.45462  0.52260  0.32591  1.0000
  C   C8        1.0  0.43021  0.53539  0.27911  1.0000
  N   N2        1.0  0.43497  0.56225  0.25677  1.0000
  C   C9        1.0  0.38162  0.53595  0.21998  1.0000
  C   C10       1.0  0.35727  0.52374  0.16509  1.0000
  C   C11       1.0  0.33829  0.54302  0.16341  1.0000
  C   C12       1.0  0.35077  0.56725  0.21744  1.0000
  N   N3        1.0  0.37742  0.56268  0.24442  1.0000
  C   C13       1.0  0.35116  0.61571  0.27615  1.0000
  C   C14       1.0  0.33881  0.64026  0.32343  1.0000
  C   C15       1.0  0.35825  0.65938  0.32319  1.0000
  C   C16       1.0  0.38278  0.64675  0.27648  1.0000
  N   N4        1.0  0.37814  0.61994  0.25549  1.0000
  Zn  Zn1       1.0  0.40668  0.59107  0.25324  1.0000
  C   C17       1.0  0.33771  0.59154  0.24557  1.0000
  C   C18       1.0  0.40565  0.52250  0.25074  1.0000
  C   C19       1.0  0.47538  0.59075  0.24687  1.0000
  C   C20       1.0  0.40731  0.65988  0.24716  1.0000
  H   H1        1.0  0.31771  0.54091  0.12825  1.0000
  H   H2        1.0  0.35490  0.50315  0.13132  1.0000
  H   H3        1.0  0.45674  0.50175  0.35573  1.0000
  H   H4        1.0  0.49493  0.53909  0.35205  1.0000
  H   H5        1.0  0.49593  0.64200  0.13482  1.0000
  H   H6        1.0  0.45868  0.67970  0.13282  1.0000
  H   H7        1.0  0.35604  0.68017  0.35149  1.0000
  H   H8        1.0  0.31799  0.64274  0.35253  1.0000
  B   B1        1.0  0.59183  0.59169  0.22007  1.0000
  O   O1        1.0  0.60815  0.57396  0.13401  1.0000
  O   O2        1.0  0.60725  0.60981  0.30931  1.0000
  C   C21       1.0  0.63392  0.58078  0.17613  1.0000
  C   C22       1.0  0.63336  0.60257  0.28170  1.0000
  C   C23       1.0  0.65732  0.56856  0.12625  1.0000
  C   C24       1.0  0.65610  0.61411  0.34733  1.0000
  C   C25       1.0  0.68008  0.58008  0.19202  1.0000
  H   H9        1.0  0.65778  0.55193  0.04256  1.0000
  C   C26       1.0  0.67948  0.60189  0.29739  1.0000
  H   H10       1.0  0.65563  0.63062  0.43178  1.0000
  O   O3        1.0  0.70622  0.57270  0.16618  1.0000
  O   O4        1.0  0.70518  0.60858  0.34123  1.0000
  B   B2        1.0  0.72153  0.59061  0.25762  1.0000
  B   B3        1.0  0.40268  0.40621  0.25673  1.0000
  O   O5        1.0  0.38370  0.38945  0.33324  1.0000
  O   O6        1.0  0.42201  0.39132  0.17433  1.0000
  C   C27       1.0  0.39154  0.36387  0.29573  1.0000
  C   C28       1.0  0.41473  0.36505  0.19954  1.0000
  C   C29       1.0  0.37924  0.34008  0.34301  1.0000
  C   C30       1.0  0.42766  0.34265  0.14124  1.0000
  C   C31       1.0  0.39219  0.31767  0.28469  1.0000
  H   H11       1.0  0.36151  0.33907  0.41944  1.0000
  C   C32       1.0  0.41538  0.31888  0.18855  1.0000
  H   H12       1.0  0.44540  0.34366  0.06477  1.0000
  O   O7        1.0  0.38493  0.29133  0.30924  1.0000
  O   O8        1.0  0.42322  0.29337  0.15020  1.0000
  B   B4        1.0  0.40429  0.27651  0.22620  1.0000
  B   B5        1.0  0.22126  0.59137  0.22596  1.0000
  O   O9        1.0  0.20537  0.60978  0.14153  1.0000
  O   O10       1.0  0.20539  0.57245  0.30956  1.0000
  C   C33       1.0  0.17940  0.60211  0.17568  1.0000
  C   C34       1.0  0.17942  0.57946  0.27722  1.0000
  C   C35       1.0  0.15626  0.61430  0.12201  1.0000
  C   C36       1.0  0.15633  0.56695  0.33486  1.0000
  C   C37       1.0  0.13318  0.60184  0.17985  1.0000
  H   H13       1.0  0.15616  0.63168  0.04192  1.0000
  C   C38       1.0  0.13316  0.57913  0.28109  1.0000
  H   H14       1.0  0.15642  0.54968  0.41586  1.0000
  O   O11       1.0  0.10725  0.60926  0.14957  1.0000
  O   O12       1.0  0.10715  0.57167  0.31654  1.0000
  B   B6        1.0  0.09137  0.59053  0.23480  1.0000
  B   B7        1.0  0.40683  0.77636  0.23776  1.0000
  O   O13       1.0  0.42591  0.79217  0.31697  1.0000
  O   O14       1.0  0.38776  0.79229  0.15940  1.0000
  C   C39       1.0  0.41835  0.81815  0.28758  1.0000
  C   C40       1.0  0.39522  0.81822  0.19275  1.0000
  C   C41       1.0  0.43097  0.84119  0.34094  1.0000
  C   C42       1.0  0.38264  0.84143  0.14245  1.0000
  C   C43       1.0  0.41834  0.86440  0.29091  1.0000
  H   H15       1.0  0.44870  0.84104  0.41600  1.0000
  C   C44       1.0  0.39521  0.86446  0.19610  1.0000
  H   H16       1.0  0.36496  0.84157  0.06695  1.0000
  O   O15       1.0  0.42570  0.89036  0.32456  1.0000
  O   O16       1.0  0.38754  0.89040  0.16707  1.0000
  B   B8        1.0  0.40641  0.90624  0.24772  1.0000
  C   C45       1.0  0.83780  0.59183  0.25534  1.0000
  C   C46       1.0  0.85095  0.61618  0.22141  1.0000
  C   C47       1.0  0.85108  0.56769  0.28578  1.0000
  C   C48       1.0  0.83840  0.64038  0.16758  1.0000
  N   N5        1.0  0.87777  0.62087  0.24285  1.0000
  C   C49       1.0  0.83876  0.54315  0.34035  1.0000
  N   N6        1.0  0.87779  0.56350  0.25786  1.0000
  C   C50       1.0  0.85754  0.65980  0.16466  1.0000
  H   H17       1.0  0.81771  0.64244  0.13547  1.0000
  C   C51       1.0  0.88206  0.64768  0.21595  1.0000
  C   C52       1.0  0.85791  0.52405  0.33735  1.0000
  H   H18       1.0  0.81816  0.54068  0.37614  1.0000
  C   C53       1.0  0.88219  0.53671  0.28145  1.0000
  H   H19       1.0  0.85516  0.68046  0.13066  1.0000
  C   C54       1.0  0.90634  0.66124  0.24230  1.0000
  H   H20       1.0  0.85565  0.50328  0.37000  1.0000
  C   C55       1.0  0.90633  0.52367  0.24771  1.0000
  C   C56       1.0  0.93083  0.64829  0.26759  1.0000
  C   C57       1.0  0.93060  0.53705  0.21503  1.0000
  C   C58       1.0  0.95542  0.66090  0.31466  1.0000
  N   N7        1.0  0.93522  0.62154  0.24375  1.0000
  C   C59       1.0  0.95496  0.52481  0.16196  1.0000
  N   N8        1.0  0.93509  0.56388  0.23699  1.0000
  C   C60       1.0  0.97465  0.64183  0.31223  1.0000
  H   H21       1.0  0.95783  0.68158  0.34624  1.0000
  C   C61       1.0  0.96207  0.61729  0.26422  1.0000
  C   C62       1.0  0.97420  0.54414  0.15939  1.0000
  H   H22       1.0  0.95721  0.50412  0.13082  1.0000
  C   C63       1.0  0.96183  0.56852  0.21031  1.0000
  H   H23       1.0  0.99546  0.64432  0.34061  1.0000
  C   C64       1.0  0.97512  0.59294  0.23692  1.0000
  H   H24       1.0  0.99488  0.54193  0.12592  1.0000
  Zn  Zn2       1.0  0.90663  0.59238  0.24566  1.0000
  C   C65       1.0  0.40349  0.16017  0.22648  1.0000
  C   C66       1.0  0.42770  0.14713  0.25836  1.0000
  C   C67       1.0  0.37908  0.14682  0.20069  1.0000
  C   C68       1.0  0.45206  0.15974  0.30974  1.0000
  N   N9        1.0  0.43200  0.12030  0.23963  1.0000
  C   C69       1.0  0.35454  0.15909  0.15125  1.0000
  N   N10       1.0  0.37455  0.12007  0.22936  1.0000
  C   C70       1.0  0.47107  0.14051  0.31652  1.0000
  H   H25       1.0  0.45442  0.18058  0.33711  1.0000
  C   C71       1.0  0.45867  0.11597  0.26713  1.0000
  C   C72       1.0  0.33518  0.13987  0.15847  1.0000
  H   H26       1.0  0.35226  0.17971  0.11584  1.0000
  C   C73       1.0  0.34766  0.11553  0.21113  1.0000
  H   H27       1.0  0.49159  0.14288  0.35211  1.0000
  C   C74       1.0  0.47179  0.09170  0.23985  1.0000
  H   H28       1.0  0.31434  0.14212  0.13075  1.0000
  C   C75       1.0  0.33445  0.09118  0.24588  1.0000
  C   C76       1.0  0.45840  0.06750  0.20895  1.0000
  C   C77       1.0  0.34757  0.06688  0.27560  1.0000
  C   C78       1.0  0.47071  0.04329  0.15528  1.0000
  N   N11       1.0  0.43159  0.06296  0.23420  1.0000
  C   C79       1.0  0.33506  0.04238  0.32995  1.0000
  N   N12       1.0  0.37430  0.06251  0.24948  1.0000
  C   C80       1.0  0.45143  0.02403  0.15572  1.0000
  H   H29       1.0  0.49138  0.04116  0.12136  1.0000
  C   C81       1.0  0.42709  0.03619  0.21028  1.0000
  C   C82       1.0  0.35420  0.02323  0.32997  1.0000
  H   H30       1.0  0.31436  0.04000  0.36357  1.0000
  C   C83       1.0  0.37864  0.03573  0.27529  1.0000
  H   H31       1.0  0.45362  0.00345  0.12195  1.0000
  C   C84       1.0  0.40291  0.02268  0.24425  1.0000
  H   H32       1.0  0.35181  0.00252  0.36420  1.0000
  Zn  Zn3       1.0  0.40294  0.09161  0.23781  1.0000
  B   B9        1.0  0.90427  0.40738  0.24555  1.0000
  O   O17       1.0  0.88629  0.39144  0.15829  1.0000
  O   O18       1.0  0.92226  0.39162  0.33360  1.0000
  C   C85       1.0  0.89364  0.36548  0.19256  1.0000
  C   C86       1.0  0.91549  0.36564  0.29827  1.0000
  C   C87       1.0  0.88206  0.34222  0.13443  1.0000
  C   C88       1.0  0.92771  0.34269  0.35611  1.0000
  C   C89       1.0  0.89432  0.31925  0.19193  1.0000
  H   H33       1.0  0.86524  0.34194  0.05184  1.0000
  C   C90       1.0  0.91612  0.31946  0.29798  1.0000
  H   H34       1.0  0.94440  0.34291  0.43981  1.0000
  O   O19       1.0  0.88751  0.29321  0.15776  1.0000
  O   O20       1.0  0.92338  0.29358  0.33373  1.0000
  B   B10       1.0  0.90562  0.27752  0.24611  1.0000
  B   B11       1.0  0.90299  0.77759  0.24092  1.0000
  O   O21       1.0  0.88389  0.79331  0.32016  1.0000
  O   O22       1.0  0.92198  0.79359  0.15872  1.0000
  C   C91       1.0  0.89153  0.81934  0.28692  1.0000
  C   C92       1.0  0.91461  0.81947  0.18968  1.0000
  C   C93       1.0  0.87915  0.84243  0.33935  1.0000
  C   C94       1.0  0.92744  0.84261  0.13591  1.0000
  C   C95       1.0  0.89196  0.86558  0.28530  1.0000
  H   H35       1.0  0.86161  0.84242  0.41762  1.0000
  C   C96       1.0  0.91511  0.86569  0.18865  1.0000
  H   H36       1.0  0.94516  0.84263  0.05928  1.0000
  O   O23       1.0  0.88482  0.89150  0.31730  1.0000
  O   O24       1.0  0.92308  0.89168  0.15785  1.0000
  B   B12       1.0  0.90411  0.90743  0.23768  1.0000
  C   C97       1.0  0.90355  0.16112  0.24753  1.0000
  C   C98       1.0  0.87919  0.14783  0.27958  1.0000
  C   C99       1.0  0.92767  0.14802  0.21385  1.0000
  C   C100      1.0  0.85484  0.16016  0.33216  1.0000
  N   N13       1.0  0.87461  0.12102  0.25708  1.0000
  C   C101      1.0  0.95206  0.16067  0.15951  1.0000
  N   N14       1.0  0.93197  0.12118  0.23600  1.0000
  C   C102      1.0  0.83550  0.14090  0.33375  1.0000
  H   H37       1.0  0.85264  0.18083  0.36383  1.0000
  C   C103      1.0  0.84781  0.11650  0.28301  1.0000
  C   C104      1.0  0.97116  0.14152  0.15578  1.0000
  H   H38       1.0  0.95442  0.18149  0.12869  1.0000
  C   C105      1.0  0.95870  0.11696  0.20887  1.0000
  H   H39       1.0  0.81478  0.14313  0.36630  1.0000
  C   C106      1.0  0.83446  0.09211  0.25671  1.0000
  H   H40       1.0  0.99178  0.14394  0.12009  1.0000
  C   C107      1.0  0.97194  0.09278  0.23928  1.0000
  C   C108      1.0  0.84748  0.06783  0.22684  1.0000
  C   C109      1.0  0.95870  0.06838  0.27057  1.0000
  C   C110      1.0  0.83480  0.04340  0.17755  1.0000
  N   N15       1.0  0.87433  0.06349  0.24569  1.0000
  C   C111      1.0  0.97109  0.04395  0.32199  1.0000
  N   N16       1.0  0.93187  0.06386  0.24794  1.0000
  C   C112      1.0  0.85400  0.02433  0.17240  1.0000
  H   H41       1.0  0.81395  0.04100  0.15018  1.0000
  C   C113      1.0  0.87865  0.03679  0.21986  1.0000
  C   C114      1.0  0.95186  0.02462  0.32217  1.0000
  H   H42       1.0  0.99177  0.04173  0.35388  1.0000
  C   C115      1.0  0.92743  0.03701  0.27205  1.0000
  H   H43       1.0  0.85156  0.00373  0.13899  1.0000
  C   C116      1.0  0.90306  0.02370  0.24463  1.0000
  H   H44       1.0  0.95415  0.00386  0.35360  1.0000
  B   B13       1.0  0.58812  0.09005  0.24949  1.0000
  O   O25       1.0  0.60356  0.07128  0.33397  1.0000
  O   O26       1.0  0.60440  0.10866  0.16642  1.0000
  C   C117      1.0  0.62973  0.07863  0.30280  1.0000
  C   C118      1.0  0.63018  0.10134  0.20178  1.0000
  C   C119      1.0  0.65267  0.06634  0.35988  1.0000
  C   C120      1.0  0.65351  0.11380  0.14826  1.0000
  C   C121      1.0  0.67604  0.07879  0.30620  1.0000
  H   H45       1.0  0.65237  0.04904  0.44062  1.0000
  C   C122      1.0  0.67640  0.10156  0.20545  1.0000
  H   H46       1.0  0.65384  0.13120  0.06834  1.0000
  O   O27       1.0  0.70195  0.07161  0.34152  1.0000
  O   O28       1.0  0.70244  0.10924  0.17492  1.0000
  B   B14       1.0  0.71804  0.09061  0.25972  1.0000
  B   B15       1.0  0.21814  0.09176  0.26256  1.0000
  O   O29       1.0  0.20218  0.07283  0.18357  1.0000
  O   O30       1.0  0.20245  0.11076  0.34229  1.0000
  C   C123      1.0  0.17627  0.08030  0.21619  1.0000
  C   C124      1.0  0.17642  0.10321  0.31243  1.0000
  C   C125      1.0  0.15306  0.06793  0.16350  1.0000
  C   C126      1.0  0.15338  0.11573  0.36581  1.0000
  C   C127      1.0  0.13003  0.08046  0.21661  1.0000
  H   H47       1.0  0.15292  0.05056  0.08579  1.0000
  C   C128      1.0  0.13016  0.10336  0.31286  1.0000
  H   H48       1.0  0.15354  0.13332  0.44164  1.0000
  O   O31       1.0  0.10407  0.07330  0.18286  1.0000
  O   O32       1.0  0.10422  0.11112  0.34183  1.0000
  B   B16       1.0  0.08828  0.09255  0.25935  1.0000
  Zn  Zn4       1.0  0.90299  0.09228  0.24602  1.0000
  C   C129      1.0  0.47162  0.64014  0.65830  1.0000
  C   C130      1.0  0.45239  0.65916  0.65877  1.0000
  C   C131      1.0  0.45930  0.61563  0.71357  1.0000
  C   C132      1.0  0.42803  0.64651  0.71350  1.0000
  N   N17       1.0  0.43254  0.61978  0.73973  1.0000
  C   C133      1.0  0.45947  0.56704  0.77664  1.0000
  C   C134      1.0  0.47194  0.54279  0.83032  1.0000
  C   C135      1.0  0.45283  0.52334  0.83189  1.0000
  C   C136      1.0  0.42840  0.53543  0.77893  1.0000
  N   N18       1.0  0.43272  0.56228  0.75306  1.0000
  C   C137      1.0  0.37987  0.53473  0.71969  1.0000
  C   C138      1.0  0.35554  0.52210  0.66806  1.0000
  C   C139      1.0  0.33633  0.54117  0.66561  1.0000
  C   C140      1.0  0.34862  0.56569  0.71658  1.0000
  N   N19       1.0  0.37536  0.56149  0.74212  1.0000
  C   C141      1.0  0.34835  0.61427  0.77367  1.0000
  C   C142      1.0  0.33573  0.63850  0.82462  1.0000
  C   C143      1.0  0.35492  0.65785  0.82666  1.0000
  C   C144      1.0  0.37946  0.64579  0.77497  1.0000
  N   N20       1.0  0.37518  0.61900  0.75103  1.0000
  Zn  Zn5       1.0  0.40397  0.59062  0.74613  1.0000
  C   C145      1.0  0.33529  0.58986  0.74400  1.0000
  C   C146      1.0  0.40425  0.52182  0.74926  1.0000
  C   C147      1.0  0.47260  0.59147  0.74430  1.0000
  C   C148      1.0  0.40364  0.65939  0.74280  1.0000
  H   H49       1.0  0.31573  0.53873  0.63182  1.0000
  H   H50       1.0  0.35327  0.50138  0.63737  1.0000
  H   H51       1.0  0.45522  0.50269  0.86577  1.0000
  H   H52       1.0  0.49261  0.54069  0.86263  1.0000
  H   H53       1.0  0.49225  0.64267  0.62317  1.0000
  H   H54       1.0  0.45466  0.67988  0.62499  1.0000
  H   H55       1.0  0.35251  0.67841  0.86044  1.0000
  H   H56       1.0  0.31491  0.64060  0.85452  1.0000
  B   B17       1.0  0.58892  0.59273  0.72936  1.0000
  O   O33       1.0  0.60448  0.57274  0.65864  1.0000
  O   O34       1.0  0.60502  0.61239  0.80013  1.0000
  C   C149      1.0  0.63052  0.57997  0.68999  1.0000
  C   C150      1.0  0.63086  0.60402  0.77500  1.0000
  C   C151      1.0  0.65345  0.56628  0.64718  1.0000
  C   C152      1.0  0.65417  0.61650  0.82539  1.0000
  C   C153      1.0  0.67675  0.57876  0.69755  1.0000
  H   H57       1.0  0.65321  0.54782  0.57969  1.0000
  C   C154      1.0  0.67709  0.60279  0.78276  1.0000
  H   H58       1.0  0.65441  0.63485  0.89405  1.0000
  O   O35       1.0  0.70257  0.57016  0.67482  1.0000
  O   O36       1.0  0.70311  0.60977  0.81666  1.0000
  B   B18       1.0  0.71869  0.58955  0.74855  1.0000
  B   B19       1.0  0.40782  0.40547  0.73941  1.0000
  O   O37       1.0  0.38871  0.38894  0.81599  1.0000
  O   O38       1.0  0.42718  0.39027  0.65844  1.0000
  C   C155      1.0  0.39610  0.36331  0.77854  1.0000
  C   C156      1.0  0.41949  0.36403  0.68416  1.0000
  C   C157      1.0  0.38310  0.33986  0.82498  1.0000
  C   C158      1.0  0.43212  0.34125  0.62860  1.0000
  C   C159      1.0  0.39561  0.31713  0.76838  1.0000
  H   H59       1.0  0.36519  0.33944  0.89994  1.0000
  C   C160      1.0  0.41918  0.31778  0.67571  1.0000
  H   H60       1.0  0.45011  0.34168  0.55433  1.0000
  O   O39       1.0  0.38761  0.29101  0.79258  1.0000
  O   O40       1.0  0.42668  0.29202  0.64091  1.0000
  B   B20       1.0  0.40704  0.27565  0.71422  1.0000
  B   B21       1.0  0.21897  0.58977  0.73098  1.0000
  O   O41       1.0  0.20384  0.60994  0.65760  1.0000
  O   O42       1.0  0.20239  0.57006  0.80092  1.0000
  C   C161      1.0  0.17761  0.60267  0.68477  1.0000
  C   C162      1.0  0.17673  0.57848  0.77157  1.0000
  C   C163      1.0  0.15501  0.61645  0.63700  1.0000
  C   C164      1.0  0.15312  0.56591  0.81902  1.0000
  C   C165      1.0  0.13140  0.60391  0.68482  1.0000
  H   H61       1.0  0.15575  0.63505  0.56835  1.0000
  C   C166      1.0  0.13052  0.57972  0.77157  1.0000
  H   H62       1.0  0.15239  0.54736  0.88807  1.0000
  O   O43       1.0  0.10572  0.61248  0.65735  1.0000
  O   O44       1.0  0.10432  0.57259  0.80063  1.0000
  B   B22       1.0  0.08916  0.59293  0.72927  1.0000
  B   B23       1.0  0.40144  0.77565  0.71954  1.0000
  O   O45       1.0  0.42064  0.79105  0.79998  1.0000
  O   O46       1.0  0.38251  0.79191  0.64225  1.0000
  C   C167      1.0  0.41340  0.81712  0.77211  1.0000
  C   C168      1.0  0.39030  0.81773  0.67712  1.0000
  C   C169      1.0  0.42627  0.83981  0.82784  1.0000
  C   C170      1.0  0.37803  0.84124  0.62874  1.0000
  C   C171      1.0  0.41404  0.86328  0.77930  1.0000
  H   H63       1.0  0.44386  0.83923  0.90409  1.0000
  C   C172      1.0  0.39092  0.86398  0.68445  1.0000
  H   H64       1.0  0.36032  0.84180  0.55355  1.0000
  O   O47       1.0  0.42187  0.88893  0.81585  1.0000
  O   O48       1.0  0.38372  0.89020  0.65829  1.0000
  B   B24       1.0  0.40307  0.90539  0.73954  1.0000
  C   C173      1.0  0.83521  0.59046  0.75148  1.0000
  C   C174      1.0  0.84813  0.61513  0.72212  1.0000
  C   C175      1.0  0.84875  0.56627  0.77737  1.0000
  C   C176      1.0  0.83533  0.63956  0.67433  1.0000
  N   N21       1.0  0.87499  0.61991  0.74088  1.0000
  C   C177      1.0  0.83661  0.54149  0.82952  1.0000
  N   N22       1.0  0.87555  0.56235  0.75033  1.0000
  C   C178      1.0  0.85444  0.65903  0.67042  1.0000
  H   H65       1.0  0.81445  0.64171  0.64748  1.0000
  C   C179      1.0  0.87916  0.64683  0.71680  1.0000
  C   C180      1.0  0.85601  0.52262  0.82748  1.0000
  H   H66       1.0  0.81597  0.53874  0.86391  1.0000
  C   C181      1.0  0.88028  0.53559  0.77406  1.0000
  H   H67       1.0  0.85185  0.67977  0.63889  1.0000
  C   C182      1.0  0.90350  0.66029  0.74236  1.0000
  H   H68       1.0  0.85391  0.50180  0.85925  1.0000
  C   C183      1.0  0.90478  0.52289  0.74425  1.0000
  C   C184      1.0  0.92794  0.64738  0.76951  1.0000
  C   C185      1.0  0.92886  0.53662  0.71123  1.0000
  C   C186      1.0  0.95224  0.66007  0.82117  1.0000
  N   N23       1.0  0.93259  0.62079  0.74343  1.0000
  C   C187      1.0  0.95337  0.52464  0.65825  1.0000
  N   N24       1.0  0.93300  0.56349  0.73293  1.0000
  C   C188      1.0  0.97162  0.64119  0.81949  1.0000
  H   H69       1.0  0.95431  0.68068  0.85506  1.0000
  C   C189      1.0  0.95941  0.61677  0.76650  1.0000
  C   C190      1.0  0.97236  0.54419  0.65534  1.0000
  H   H70       1.0  0.95587  0.50398  0.62742  1.0000
  C   C191      1.0  0.95974  0.56836  0.70675  1.0000
  H   H71       1.0  0.99227  0.64367  0.85195  1.0000
  C   C192      1.0  0.97281  0.59278  0.73565  1.0000
  H   H72       1.0  0.99306  0.54225  0.62178  1.0000
  Zn  Zn6       1.0  0.90400  0.59174  0.73906  1.0000
  C   C193      1.0  0.40711  0.15922  0.72554  1.0000
  C   C194      1.0  0.43130  0.14621  0.75901  1.0000
  C   C195      1.0  0.38285  0.14571  0.69802  1.0000
  C   C196      1.0  0.45559  0.15886  0.81096  1.0000
  N   N25       1.0  0.43571  0.11936  0.73997  1.0000
  C   C197      1.0  0.35838  0.15776  0.64530  1.0000
  N   N26       1.0  0.37842  0.11899  0.72786  1.0000
  C   C198      1.0  0.47472  0.13973  0.81609  1.0000
  H   H73       1.0  0.45788  0.17964  0.84039  1.0000
  C   C199      1.0  0.46239  0.11511  0.76706  1.0000
  C   C200      1.0  0.33915  0.13843  0.65125  1.0000
  H   H74       1.0  0.35600  0.17831  0.60904  1.0000
  C   C201      1.0  0.35160  0.11431  0.70738  1.0000
  H   H75       1.0  0.49530  0.14219  0.85028  1.0000
  C   C202      1.0  0.47564  0.09080  0.74218  1.0000
  H   H76       1.0  0.31841  0.14051  0.62062  1.0000
  C   C203      1.0  0.33843  0.09010  0.74535  1.0000
  C   C204      1.0  0.46249  0.06629  0.71600  1.0000
  C   C205      1.0  0.35164  0.06604  0.77959  1.0000
  C   C206      1.0  0.47502  0.04183  0.66823  1.0000
  N   N27       1.0  0.43563  0.06176  0.73862  1.0000
  C   C207      1.0  0.33928  0.04178  0.83873  1.0000
  N   N28       1.0  0.37830  0.06162  0.75104  1.0000
  C   C208      1.0  0.45572  0.02254  0.66796  1.0000
  H   H77       1.0  0.49585  0.03957  0.63866  1.0000
  C   C209      1.0  0.43117  0.03491  0.71676  1.0000
  C   C210      1.0  0.35832  0.02255  0.83654  1.0000
  H   H78       1.0  0.31878  0.03957  0.87740  1.0000
  C   C211      1.0  0.38261  0.03491  0.77820  1.0000
  H   H79       1.0  0.45807  0.00185  0.63735  1.0000
  C   C212      1.0  0.40674  0.02166  0.74684  1.0000
  H   H80       1.0  0.35602  0.00190  0.87176  1.0000
  Zn  Zn7       1.0  0.40699  0.09049  0.73783  1.0000
  B   B25       1.0  0.90786  0.40649  0.75478  1.0000
  O   O49       1.0  0.88737  0.39076  0.69017  1.0000
  O   O50       1.0  0.92830  0.39048  0.81761  1.0000
  C   C213      1.0  0.89524  0.36479  0.71395  1.0000
  C   C214      1.0  0.91996  0.36458  0.79189  1.0000
  C   C215      1.0  0.88159  0.34183  0.66959  1.0000
  C   C216      1.0  0.93305  0.34128  0.83497  1.0000
  C   C217      1.0  0.89477  0.31853  0.71152  1.0000
  H   H81       1.0  0.86267  0.34215  0.60639  1.0000
  C   C218      1.0  0.91934  0.31830  0.79145  1.0000
  H   H82       1.0  0.95192  0.34098  0.89850  1.0000
  O   O51       1.0  0.88652  0.29266  0.68381  1.0000
  O   O52       1.0  0.92708  0.29227  0.81709  1.0000
  B   B26       1.0  0.90665  0.27666  0.75012  1.0000
  B   B27       1.0  0.90420  0.77662  0.73098  1.0000
  O   O53       1.0  0.88493  0.79227  0.80873  1.0000
  O   O54       1.0  0.92330  0.79268  0.65024  1.0000
  C   C219      1.0  0.89247  0.81830  0.77636  1.0000
  C   C220      1.0  0.91575  0.81860  0.68089  1.0000
  C   C221      1.0  0.87978  0.84124  0.82857  1.0000
  C   C222      1.0  0.92841  0.84194  0.62855  1.0000
  C   C223      1.0  0.89246  0.86455  0.77623  1.0000
  H   H83       1.0  0.86198  0.84095  0.90456  1.0000
  C   C224      1.0  0.91574  0.86490  0.68079  1.0000
  H   H84       1.0  0.94623  0.84223  0.55274  1.0000
  O   O55       1.0  0.88497  0.89039  0.80856  1.0000
  O   O56       1.0  0.92335  0.89101  0.65016  1.0000
  B   B28       1.0  0.90432  0.90656  0.73089  1.0000
  C   C225      1.0  0.90726  0.16036  0.74812  1.0000
  C   C226      1.0  0.88300  0.14700  0.78190  1.0000
  C   C227      1.0  0.93151  0.14733  0.71562  1.0000
  C   C228      1.0  0.85883  0.15924  0.83841  1.0000
  N   N29       1.0  0.87836  0.12027  0.75841  1.0000
  C   C229      1.0  0.95599  0.16004  0.66355  1.0000
  N   N30       1.0  0.93587  0.12047  0.73790  1.0000
  C   C230      1.0  0.83953  0.13998  0.84192  1.0000
  H   H85       1.0  0.85673  0.17986  0.87115  1.0000
  C   C231      1.0  0.85163  0.11574  0.78723  1.0000
  C   C232      1.0  0.97518  0.14094  0.66226  1.0000
  H   H86       1.0  0.95840  0.18086  0.63224  1.0000
  C   C233      1.0  0.96267  0.11623  0.71241  1.0000
  H   H87       1.0  0.81898  0.14213  0.87860  1.0000
  C   C234      1.0  0.83815  0.09157  0.75763  1.0000
  H   H88       1.0  0.99594  0.14354  0.63050  1.0000
  C   C235      1.0  0.97577  0.09180  0.73911  1.0000
  C   C236      1.0  0.85116  0.06744  0.72415  1.0000
  C   C237      1.0  0.96234  0.06740  0.76904  1.0000
  C   C238      1.0  0.83851  0.04328  0.67040  1.0000
  N   N31       1.0  0.87797  0.06297  0.74488  1.0000
  C   C239      1.0  0.97462  0.04285  0.81964  1.0000
  N   N32       1.0  0.93547  0.06302  0.74740  1.0000
  C   C240      1.0  0.85760  0.02412  0.66596  1.0000
  H   H89       1.0  0.81775  0.04111  0.63972  1.0000
  C   C241      1.0  0.88218  0.03632  0.71719  1.0000
  C   C242      1.0  0.95527  0.02363  0.82089  1.0000
  H   H90       1.0  0.99533  0.04046  0.85055  1.0000
  C   C243      1.0  0.93087  0.03616  0.77141  1.0000
  H   H91       1.0  0.85512  0.00362  0.63074  1.0000
  C   C244      1.0  0.90642  0.02299  0.74360  1.0000
  H   H92       1.0  0.95749  0.00287  0.85292  1.0000
  B   B29       1.0  0.59198  0.09199  0.74497  1.0000
  O   O57       1.0  0.60735  0.07265  0.82480  1.0000
  O   O58       1.0  0.60829  0.11117  0.66684  1.0000
  C   C245      1.0  0.63349  0.07999  0.79415  1.0000
  C   C246      1.0  0.63405  0.10345  0.69982  1.0000
  C   C247      1.0  0.65632  0.06693  0.84541  1.0000
  C   C248      1.0  0.65746  0.11618  0.65020  1.0000
  C   C249      1.0  0.67974  0.07955  0.79462  1.0000
  H   H93       1.0  0.65588  0.04891  0.91986  1.0000
  C   C250      1.0  0.68028  0.10326  0.70280  1.0000
  H   H94       1.0  0.65789  0.13422  0.57594  1.0000
  O   O59       1.0  0.70552  0.07164  0.82566  1.0000
  O   O60       1.0  0.70641  0.11097  0.67506  1.0000
  B   B30       1.0  0.72180  0.09132  0.75222  1.0000
  B   B31       1.0  0.22218  0.08878  0.76130  1.0000
  O   O61       1.0  0.20641  0.06879  0.69112  1.0000
  O   O62       1.0  0.20629  0.10840  0.83293  1.0000
  C   C251      1.0  0.18042  0.07654  0.71754  1.0000
  C   C252      1.0  0.18036  0.10052  0.80327  1.0000
  C   C253      1.0  0.15733  0.06348  0.66866  1.0000
  C   C254      1.0  0.15719  0.11355  0.84875  1.0000
  C   C255      1.0  0.13416  0.07657  0.71381  1.0000
  H   H95       1.0  0.15741  0.04513  0.59998  1.0000
  C   C256      1.0  0.13412  0.10051  0.79991  1.0000
  H   H96       1.0  0.15713  0.13189  0.91741  1.0000
  O   O63       1.0  0.10820  0.06897  0.68236  1.0000
  O   O64       1.0  0.10819  0.10848  0.82494  1.0000
  B   B32       1.0  0.09230  0.08903  0.74999  1.0000
  Zn  Zn8       1.0  0.90692  0.09178  0.74600  1.0000
  C  Sn1       1.0  0.54199  0.60667  0.36452  1.0000
  C   C257      1.0  0.55862  0.59029  0.27292  1.0000
  C  Sn2       1.0  0.54827  0.57464  0.14763  1.0000
  C  Sn3       1.0  0.52072  0.57539  0.11309  1.0000
  C   C258      1.0  0.50410  0.59177  0.20463  1.0000
  C  Sn4       1.0  0.51444  0.60742  0.32998  1.0000
  O  Te1       1.0  0.55277  0.62215  0.48921  1.0000
  O  Te2       1.0  0.56530  0.55841  0.05777  1.0000
  O  Te3       1.0  0.50876  0.55808  0.98829  1.0000
  O  Te4       1.0  0.49743  0.62364  0.41979  1.0000
  Mg  Mg1       1.0  0.54000  0.53919  0.90006  1.0000
  Mg  Mg2       1.0  0.52151  0.64107  0.57746  1.0000
  C  Sn5       1.0  0.78800  0.60798  0.38912  1.0000
  C   C259      1.0  0.80523  0.59068  0.30892  1.0000
  C  Sn6       1.0  0.79583  0.57406  0.18559  1.0000
  C  Sn7       1.0  0.76865  0.57474  0.14140  1.0000
  C   C260      1.0  0.75144  0.59203  0.22154  1.0000
  C  Sn8       1.0  0.76082  0.60866  0.34493  1.0000
  O  Te5       1.0  0.79783  0.62442  0.51205  1.0000
  O  Te6       1.0  0.81343  0.55693  0.10721  1.0000
  O  Te7       1.0  0.75883  0.55828  0.01836  1.0000
  O  Te8       1.0  0.74323  0.62578  0.42326  1.0000
  Mg  Mg3       1.0  0.78939  0.53657  0.94739  1.0000
  Mg  Mg4       1.0  0.76607  0.64435  0.58302  1.0000
  C  Sn9       1.0  0.38771  0.47317  0.38769  1.0000
  C   C261      1.0  0.40562  0.48986  0.30371  1.0000
  C  Sn10      1.0  0.42160  0.47995  0.17779  1.0000
  C  Sn11      1.0  0.41962  0.45279  0.13484  1.0000
  C   C262      1.0  0.40172  0.43612  0.21877  1.0000
  C  Sn12      1.0  0.38574  0.44601  0.34473  1.0000
  O  Te9       1.0  0.37194  0.48350  0.51315  1.0000
  O  Te10      1.0  0.43936  0.49702  0.09564  1.0000
  O  Te11      1.0  0.43542  0.44247  0.00926  1.0000
  O  Te12      1.0  0.36798  0.42896  0.42684  1.0000
  Mg  Mg5       1.0  0.45540  0.47178  0.93345  1.0000
  Mg  Mg6       1.0  0.35073  0.45237  0.58898  1.0000
  C  Sn13      1.0  0.38767  0.22573  0.35649  1.0000
  C   C263      1.0  0.40487  0.24297  0.27111  1.0000
  C  Sn14      1.0  0.42095  0.23356  0.14419  1.0000
  C  Sn15      1.0  0.41981  0.20634  0.10165  1.0000
  C   C264      1.0  0.40262  0.18912  0.18699  1.0000
  C  Sn16      1.0  0.38653  0.19851  0.31395  1.0000
  O  Te13      1.0  0.37178  0.23557  0.48293  1.0000
  O  Te14      1.0  0.43800  0.25118  0.06065  1.0000
  O  Te15      1.0  0.43453  0.19470  0.97510  1.0000
  O  Te16      1.0  0.36949  0.18091  0.39745  1.0000
  Mg  Mg7       1.0  0.45453  0.22648  0.89752  1.0000
  Mg  Mg8       1.0  0.35175  0.20378  0.56053  1.0000
  C  Sn17      1.0  0.28846  0.61764  0.18642  1.0000
  C   C265      1.0  0.30501  0.59926  0.26375  1.0000
  C  Sn18      1.0  0.29495  0.57469  0.31701  1.0000
  C  Sn19      1.0  0.26780  0.56833  0.29238  1.0000
  C   C266      1.0  0.25127  0.58670  0.21506  1.0000
  C  Sn20      1.0  0.26130  0.61128  0.16178  1.0000
  O  Te17      1.0  0.29894  0.64208  0.13416  1.0000
  O  Te18      1.0  0.31188  0.55665  0.39407  1.0000
  O  Te19      1.0  0.25733  0.54386  0.34472  1.0000
  O  Te20      1.0  0.24439  0.62931  0.08474  1.0000
  Mg  Mg9       1.0  0.28829  0.52591  0.44340  1.0000
  Mg  Mg10      1.0  0.26796  0.66005  0.03529  1.0000
  C  Sn21      1.0  0.02559  0.60870  0.10392  1.0000
  C   C267      1.0  0.00774  0.59167  0.18574  1.0000
  C  Sn22      1.0  0.01645  0.57504  0.31256  1.0000
  C  Sn23      1.0  0.04356  0.57545  0.35865  1.0000
  C   C268      1.0  0.06139  0.59247  0.27687  1.0000
  C  Sn24      1.0  0.05270  0.60910  0.15000  1.0000
  O  Te21      1.0  0.01526  0.62335  0.97750  1.0000
  O  Te22      1.0  0.99823  0.55819  0.39251  1.0000
  O  Te23      1.0  0.05269  0.55897  0.48518  1.0000
  O  Te24      1.0  0.07090  0.62596  0.07010  1.0000
  Mg  Mg11      1.0  0.02027  0.53950  0.55713  1.0000
  Mg  Mg12      1.0  0.04769  0.64285  0.90553  1.0000
  C  Sn25      1.0  0.39124  0.70954  0.10753  1.0000
  C   C269      1.0  0.40861  0.69263  0.19048  1.0000
  C  Sn26      1.0  0.42454  0.70228  0.31672  1.0000
  C  Sn27      1.0  0.42307  0.72938  0.36105  1.0000
  C   C270      1.0  0.40571  0.74627  0.27814  1.0000
  C  Sn28      1.0  0.38977  0.73665  0.15186  1.0000
  O  Te25      1.0  0.37431  0.69766  0.98172  1.0000
  O  Te26      1.0  0.44176  0.68499  0.39783  1.0000
  O  Te27      1.0  0.43883  0.73944  0.48697  1.0000
  O  Te28      1.0  0.37256  0.75392  0.07080  1.0000
  Mg  Mg13      1.0  0.45917  0.70809  0.56099  1.0000
  Mg  Mg14      1.0  0.35394  0.72903  0.90768  1.0000
  C  Sn29      1.0  0.37802  0.97185  0.20458  1.0000
  C   C271      1.0  0.39599  0.98977  0.27331  1.0000
  C  Sn30      1.0  0.42106  0.98131  0.32302  1.0000
  C  Sn31      1.0  0.42833  0.95437  0.30353  1.0000
  C   C272      1.0  0.41037  0.93647  0.23481  1.0000
  C  Sn32      1.0  0.38529  0.94491  0.18509  1.0000
  O  Te29      1.0  0.35306  0.98075  0.15574  1.0000
  O  Te30      1.0  0.43095  0.99960  0.39146  1.0000
  O  Te31      1.0  0.45331  0.94549  0.35244  1.0000
  O  Te32      1.0  0.36767  0.92664  0.11666  1.0000
  Mg  Mg15      1.0  0.47040  0.97791  0.43906  1.0000
  Mg  Mg16      1.0  0.33596  0.94830  0.06894  1.0000
  C  Sn33      1.0  0.87966  0.47451  0.19582  1.0000
  C   C273      1.0  0.89829  0.49121  0.26931  1.0000
  C  Sn34      1.0  0.92254  0.48118  0.32322  1.0000
  C  Sn35      1.0  0.92829  0.45388  0.30317  1.0000
  C   C274      1.0  0.90967  0.43719  0.22969  1.0000
  C  Sn36      1.0  0.88541  0.44721  0.17577  1.0000
  O  Te33      1.0  0.85554  0.48497  0.14284  1.0000
  O  Te34      1.0  0.94085  0.49826  0.39638  1.0000
  O  Te35      1.0  0.95243  0.44342  0.35623  1.0000
  O  Te36      1.0  0.86711  0.43014  0.10262  1.0000
  Mg  Mg17      1.0  0.97095  0.47463  0.44850  1.0000
  Mg  Mg18      1.0  0.83701  0.45375  0.05039  1.0000
  C  Sn37      1.0  0.92112  0.21047  0.37999  1.0000
  C   C275      1.0  0.90321  0.19376  0.30015  1.0000
  C  Sn38      1.0  0.88704  0.20369  0.17532  1.0000
  C  Sn39      1.0  0.88883  0.23089  0.12924  1.0000
  C   C276      1.0  0.90674  0.24758  0.20904  1.0000
  C  Sn40      1.0  0.92291  0.23767  0.33392  1.0000
  O  Te37      1.0  0.93709  0.20011  0.50444  1.0000
  O  Te38      1.0  0.86928  0.18660  0.09732  1.0000
  O  Te39      1.0  0.87284  0.24124  0.00469  1.0000
  O  Te40      1.0  0.94066  0.25474  0.41187  1.0000
  Mg  Mg19      1.0  0.85055  0.20826  0.93497  1.0000
  Mg  Mg20      1.0  0.95821  0.23129  0.57417  1.0000
  C  Sn41      1.0  0.93087  0.71208  0.19107  1.0000
  C   C277      1.0  0.91317  0.69402  0.26529  1.0000
  C  Sn42      1.0  0.88837  0.70242  0.32133  1.0000
  C  Sn43      1.0  0.88109  0.72943  0.30271  1.0000
  C   C278      1.0  0.89878  0.74747  0.22850  1.0000
  C  Sn44      1.0  0.92359  0.73909  0.17244  1.0000
  O  Te41      1.0  0.95556  0.70324  0.13595  1.0000
  O  Te42      1.0  0.87102  0.68401  0.39519  1.0000
  O  Te43      1.0  0.85638  0.73826  0.35791  1.0000
  O  Te44      1.0  0.94093  0.75748  0.09860  1.0000
  Mg  Mg21      1.0  0.83961  0.70566  0.45037  1.0000
  Mg  Mg22      1.0  0.97234  0.73586  0.04330  1.0000
  C  Sn45      1.0  0.92965  0.95891  0.18696  1.0000
  C   C279      1.0  0.91203  0.94112  0.26418  1.0000
  C  Sn46      1.0  0.88747  0.94981  0.32258  1.0000
  C  Sn47      1.0  0.88037  0.97686  0.30329  1.0000
  C   C280      1.0  0.89799  0.99464  0.22609  1.0000
  C  Sn48      1.0  0.92255  0.98596  0.16768  1.0000
  O  Te45      1.0  0.95410  0.94978  0.12952  1.0000
  O  Te46      1.0  0.87019  0.93165  0.39941  1.0000
  O  Te47      1.0  0.85590  0.98598  0.36081  1.0000
  O  Te48      1.0  0.93209  0.00411  0.09085  1.0000
  Mg  Mg23      1.0  0.83913  0.95365  0.45696  1.0000
  Mg  Mg24      1.0  0.97088  0.98213  0.03319  1.0000
  C  Sn49      1.0  0.53814  0.11693  0.19696  1.0000
  C   C281      1.0  0.55458  0.09838  0.27353  1.0000
  C  Sn50      1.0  0.54434  0.07388  0.32679  1.0000
  C  Sn51      1.0  0.51711  0.06778  0.30294  1.0000
  C   C282      1.0  0.50068  0.08632  0.22639  1.0000
  C  Sn52      1.0  0.51090  0.11083  0.17311  1.0000
  O  Te49      1.0  0.54879  0.14130  0.14468  1.0000
  O  Te50      1.0  0.56117  0.05566  0.40308  1.0000
  O  Te51      1.0  0.50646  0.04339  0.35530  1.0000
  O  Te52      1.0  0.49409  0.12904  0.09684  1.0000
  Mg  Mg25      1.0  0.53734  0.02512  0.45276  1.0000
  Mg  Mg26      1.0  0.51790  0.15958  0.04703  1.0000
  C  Sn53      1.0  0.76863  0.10761  0.12644  1.0000
  C   C283      1.0  0.75156  0.09045  0.21346  1.0000
  C  Sn54      1.0  0.76119  0.07459  0.34140  1.0000
  C  Sn55      1.0  0.78845  0.07592  0.38333  1.0000
  C   C284      1.0  0.80551  0.09307  0.29636  1.0000
  C  Sn56      1.0  0.79590  0.10893  0.16836  1.0000
  O  Te53      1.0  0.75738  0.12147  0.99899  1.0000
  O  Te54      1.0  0.74374  0.05759  0.42658  1.0000
  O  Te55      1.0  0.79850  0.06023  0.51090  1.0000
  O  Te56      1.0  0.81333  0.12593  0.08323  1.0000
  Mg  Mg27      1.0  0.76689  0.04020  0.59061  1.0000
  Mg  Mg28      1.0  0.78900  0.14153  0.91925  1.0000
  C  Sn57      1.0  0.26842  0.06553  0.20601  1.0000
  C   C285      1.0  0.25173  0.08339  0.28573  1.0000
  C  Sn58      1.0  0.26164  0.10770  0.34033  1.0000
  C  Sn59      1.0  0.28879  0.11430  0.31462  1.0000
  C   C286      1.0  0.30546  0.09645  0.23492  1.0000
  C  Sn60      1.0  0.29557  0.07213  0.18030  1.0000
  O  Te57      1.0  0.25808  0.04134  0.15245  1.0000
  O  Te58      1.0  0.24457  0.12522  0.41978  1.0000
  O  Te59      1.0  0.29912  0.13851  0.36827  1.0000
  O  Te60      1.0  0.31262  0.05461  0.10087  1.0000
  Mg  Mg29      1.0  0.26800  0.15577  0.47014  1.0000
  Mg  Mg30      1.0  0.28921  0.02406  0.05039  1.0000
  C  Sn61      1.0  0.02153  0.11911  0.29269  1.0000
  C   C287      1.0  0.00469  0.10083  0.21712  1.0000
  C  Sn62      1.0  0.01437  0.07635  0.16563  1.0000
  C  Sn63      1.0  0.04145  0.06999  0.19027  1.0000
  C   C288      1.0  0.05828  0.08826  0.26581  1.0000
  C  Sn64      1.0  0.04861  0.11275  0.31732  1.0000
  O  Te61      1.0  0.01142  0.14346  0.34319  1.0000
  O  Te62      1.0  0.99715  0.05840  0.09032  1.0000
  O  Te63      1.0  0.05155  0.04562  0.13969  1.0000
  O  Te64      1.0  0.06581  0.13069  0.39261  1.0000
  Mg  Mg31      1.0  0.02028  0.02777  0.04301  1.0000
  Mg  Mg32      1.0  0.04270  0.16132  0.44005  1.0000
  C  Sn65      1.0  0.53808  0.57539  0.60767  1.0000
  C   C289      1.0  0.55533  0.59296  0.68597  1.0000
  C  Sn66      1.0  0.54596  0.60952  0.80980  1.0000
  C  Sn67      1.0  0.51877  0.60848  0.85642  1.0000
  C   C290      1.0  0.50154  0.59091  0.77817  1.0000
  C  Sn68      1.0  0.51089  0.57435  0.65429  1.0000
  O  Te65      1.0  0.54788  0.55901  0.48420  1.0000
  O  Te66      1.0  0.56358  0.62694  0.88625  1.0000
  O  Te67      1.0  0.50898  0.62488  0.97999  1.0000
  O  Te68      1.0  0.49328  0.55694  0.57788  1.0000
  Mg  Mg33      1.0  0.54195  0.64706  0.04771  1.0000
  Mg  Mg34      1.0  0.51609  0.53861  0.41647  1.0000
  C  Sn69      1.0  0.76976  0.56354  0.70144  1.0000
  C   C291      1.0  0.75236  0.58094  0.77931  1.0000
  C  Sn70      1.0  0.76153  0.60533  0.83712  1.0000
  C  Sn71      1.0  0.78866  0.61250  0.81659  1.0000
  C   C292      1.0  0.80604  0.59511  0.73873  1.0000
  C  Sn72      1.0  0.79688  0.57070  0.68090  1.0000
  O  Te69      1.0  0.76016  0.53925  0.64460  1.0000
  O  Te70      1.0  0.74376  0.62239  0.91463  1.0000
  O  Te71      1.0  0.79825  0.63680  0.87351  1.0000
  O  Te72      1.0  0.81464  0.55365  0.60341  1.0000
  Mg  Mg35      1.0  0.76633  0.65329  0.97096  1.0000
  Mg  Mg36      1.0  0.79209  0.52276  0.54696  1.0000
  C  Sn73      1.0  0.38012  0.45496  0.79237  1.0000
  C   C293      1.0  0.39890  0.43891  0.71559  1.0000
  C  Sn74      1.0  0.42321  0.44959  0.66259  1.0000
  C  Sn75      1.0  0.42888  0.47689  0.68691  1.0000
  C   C294      1.0  0.41011  0.49293  0.76366  1.0000
  C  Sn76      1.0  0.38578  0.48226  0.81669  1.0000
  O  Te73      1.0  0.35594  0.44386  0.84438  1.0000
  O  Te74      1.0  0.44167  0.43315  0.58609  1.0000
  O  Te75      1.0  0.45307  0.48798  0.63482  1.0000
  O  Te76      1.0  0.36734  0.49869  0.89317  1.0000
  Mg  Mg37      1.0  0.47180  0.45751  0.53691  1.0000
  Mg  Mg38      1.0  0.33720  0.47434  0.94247  1.0000
  C  Sn77      1.0  0.38091  0.20867  0.76646  1.0000
  C   C295      1.0  0.39956  0.19159  0.69739  1.0000
  C  Sn78      1.0  0.42418  0.20135  0.64319  1.0000
  C  Sn79      1.0  0.43030  0.22875  0.65842  1.0000
  C   C296      1.0  0.41165  0.24580  0.72747  1.0000
  C  Sn80      1.0  0.38702  0.23606  0.78169  1.0000
  O  Te77      1.0  0.35642  0.19847  0.81983  1.0000
  O  Te78      1.0  0.44250  0.18390  0.57451  1.0000
  O  Te79      1.0  0.45481  0.23893  0.60497  1.0000
  O  Te80      1.0  0.36871  0.25350  0.85036  1.0000
  Mg  Mg39      1.0  0.47319  0.20726  0.51989  1.0000
  Mg  Mg40      1.0  0.33802  0.23015  0.90509  1.0000
  C  Sn81      1.0  0.27016  0.60631  0.60543  1.0000
  C   C297      1.0  0.25257  0.58915  0.68831  1.0000
  C  Sn82      1.0  0.26158  0.57271  0.81530  1.0000
  C  Sn83      1.0  0.28872  0.57347  0.86047  1.0000
  C   C298      1.0  0.30629  0.59063  0.77763  1.0000
  C  Sn84      1.0  0.29730  0.60706  0.65059  1.0000
  O  Te81      1.0  0.26073  0.62256  0.47886  1.0000
  O  Te82      1.0  0.24362  0.55571  0.89633  1.0000
  O  Te83      1.0  0.29814  0.55719  0.98715  1.0000
  O  Te84      1.0  0.31524  0.62406  0.56961  1.0000
  Mg  Mg41      1.0  0.26720  0.53922  0.06072  1.0000
  Mg  Mg42      1.0  0.29288  0.64238  0.40527  1.0000
  C  Sn85      1.0  0.02265  0.57630  0.86513  1.0000
  C   C299      1.0  0.00552  0.59402  0.78691  1.0000
  C  Sn86      1.0  0.01492  0.61083  0.66142  1.0000
  C  Sn87      1.0  0.04200  0.60991  0.61302  1.0000
  C   C300      1.0  0.05912  0.59220  0.69119  1.0000
  C  Sn88      1.0  0.04974  0.57538  0.81672  1.0000
  O  Te85      1.0  0.01282  0.55967  0.99027  1.0000
  O  Te86      1.0  0.99741  0.62838  0.58509  1.0000
  O  Te87      1.0  0.05182  0.62656  0.48777  1.0000
  O  Te88      1.0  0.06723  0.55783  0.89302  1.0000
  Mg  Mg43      1.0  0.02022  0.64705  0.42094  1.0000
  Mg  Mg44      1.0  0.04562  0.54096  0.05711  1.0000
  C  Sn89      1.0  0.41979  0.71033  0.85943  1.0000
  C   C301      1.0  0.40232  0.69223  0.78757  1.0000
  C  Sn90      1.0  0.38519  0.70047  0.66308  1.0000
  C  Sn91      1.0  0.38552  0.72735  0.60921  1.0000
  C   C302      1.0  0.40298  0.74543  0.68104  1.0000
  C  Sn92      1.0  0.42013  0.73721  0.80556  1.0000
  O  Te89      1.0  0.43675  0.70166  0.98369  1.0000
  O  Te90      1.0  0.36790  0.68201  0.59314  1.0000
  O  Te91      1.0  0.36855  0.73601  0.48486  1.0000
  O  Te92      1.0  0.43741  0.75565  0.87546  1.0000
  Mg  Mg45      1.0  0.34861  0.70342  0.42768  1.0000
  Mg  Mg46      1.0  0.45790  0.73608  0.04086  1.0000
  C  Sn93      1.0  0.43115  0.97112  0.79383  1.0000
  C   C303      1.0  0.41345  0.98904  0.72263  1.0000
  C  Sn94      1.0  0.38861  0.98038  0.66878  1.0000
  C  Sn95      1.0  0.38129  0.95325  0.68656  1.0000
  C   C304      1.0  0.39898  0.93534  0.75775  1.0000
  C  Sn96      1.0  0.42384  0.94399  0.81161  1.0000
  O  Te93      1.0  0.45589  0.98022  0.84680  1.0000
  O  Te94      1.0  0.37125  0.99867  0.59792  1.0000
  O  Te95      1.0  0.35654  0.94416  0.63351  1.0000
  O  Te96      1.0  0.44118  0.92572  0.88245  1.0000
  Mg  Mg47      1.0  0.33978  0.97667  0.54486  1.0000
  Mg  Mg48      1.0  0.47266  0.94769  0.93564  1.0000
  C  Sn97      1.0  0.88015  0.47222  0.70397  1.0000
  C   C305      1.0  0.89819  0.49015  0.77196  1.0000
  C  Sn98      1.0  0.92307  0.48156  0.82446  1.0000
  C  Sn99      1.0  0.93007  0.45448  0.80858  1.0000
  C   C306      1.0  0.91203  0.43656  0.74061  1.0000
  C  Sn100     1.0  0.88714  0.44514  0.68810  1.0000
  O  Te97      1.0  0.85539  0.48125  0.65230  1.0000
  O  Te98      1.0  0.94077  0.49985  0.89209  1.0000
  O  Te99      1.0  0.95485  0.44546  0.86033  1.0000
  O  Te100     1.0  0.86945  0.42686  0.62048  1.0000
  Mg  Mg49      1.0  0.97214  0.47796  0.94448  1.0000
  Mg  Mg50      1.0  0.83808  0.44874  0.56797  1.0000
  C  Sn101     1.0  0.93298  0.22619  0.79475  1.0000
  C   C307      1.0  0.91462  0.24325  0.72187  1.0000
  C  Sn102     1.0  0.89001  0.23358  0.67042  1.0000
  C  Sn103     1.0  0.88360  0.20629  0.69237  1.0000
  C   C308      1.0  0.90195  0.18925  0.76523  1.0000
  C  Sn104     1.0  0.92657  0.19890  0.81670  1.0000
  O  Te101     1.0  0.95746  0.23629  0.84526  1.0000
  O  Te102     1.0  0.87199  0.25101  0.59783  1.0000
  O  Te103     1.0  0.85909  0.19620  0.64178  1.0000
  O  Te104     1.0  0.94458  0.18149  0.88928  1.0000
  Mg  Mg51      1.0  0.84118  0.22780  0.54935  1.0000
  Mg  Mg52      1.0  0.97538  0.20468  0.93787  1.0000
  C  Sn105     1.0  0.87813  0.71001  0.79249  1.0000
  C   C309      1.0  0.89614  0.69275  0.71881  1.0000
  C  Sn106     1.0  0.92061  0.70222  0.66013  1.0000
  C  Sn107     1.0  0.92723  0.72950  0.67549  1.0000
  C   C310      1.0  0.90922  0.74673  0.74915  1.0000
  C  Sn108     1.0  0.88474  0.73728  0.80785  1.0000
  O  Te105     1.0  0.85378  0.70011  0.85029  1.0000
  O  Te106     1.0  0.93829  0.68459  0.58689  1.0000
  O  Te107     1.0  0.95160  0.73939  0.61761  1.0000
  O  Te108     1.0  0.86707  0.75490  0.88108  1.0000
  Mg  Mg53      1.0  0.96903  0.70757  0.52725  1.0000
  Mg  Mg54      1.0  0.83634  0.73194  0.94083  1.0000
  C  Sn109     1.0  0.87928  0.95752  0.78810  1.0000
  C   C311      1.0  0.89695  0.94050  0.70929  1.0000
  C  Sn110     1.0  0.92173  0.94984  0.65508  1.0000
  C  Sn111     1.0  0.92901  0.97674  0.68024  1.0000
  C   C312      1.0  0.91134  0.99374  0.75903  1.0000
  C  Sn112     1.0  0.88655  0.98442  0.81327  1.0000
  O  Te109     1.0  0.85461  0.94775  0.84128  1.0000
  O  Te110     1.0  0.93906  0.93246  0.57655  1.0000
  O  Te111     1.0  0.95370  0.98650  0.62697  1.0000
  O  Te112     1.0  0.86150  0.00178  0.89177  1.0000
  Mg  Mg55      1.0  0.97044  0.95512  0.52638  1.0000
  Mg  Mg56      1.0  0.83785  0.97914  0.94206  1.0000
  C  Sn113     1.0  0.54109  0.11755  0.69022  1.0000
  C   C313      1.0  0.55823  0.09998  0.76968  1.0000
  C  Sn114     1.0  0.54892  0.07537  0.82728  1.0000
  C  Sn115     1.0  0.52192  0.06815  0.80491  1.0000
  C   C314      1.0  0.50480  0.08571  0.72547  1.0000
  C  Sn116     1.0  0.51409  0.11034  0.66785  1.0000
  O  Te113     1.0  0.55083  0.14206  0.63362  1.0000
  O  Te114     1.0  0.56643  0.05814  0.90640  1.0000
  O  Te115     1.0  0.51219  0.04363  0.86159  1.0000
  O  Te116     1.0  0.49660  0.12756  0.58876  1.0000
  Mg  Mg57      1.0  0.54376  0.02697  0.96166  1.0000
  Mg  Mg58      1.0  0.51925  0.15872  0.53337  1.0000
  C  Sn117     1.0  0.78872  0.11776  0.71086  1.0000
  C   C315      1.0  0.80559  0.09916  0.78326  1.0000
  C  Sn118     1.0  0.79577  0.07441  0.83481  1.0000
  C  Sn119     1.0  0.76852  0.06810  0.81346  1.0000
  C   C316      1.0  0.75167  0.08669  0.74107  1.0000
  C  Sn120     1.0  0.76148  0.11145  0.68951  1.0000
  O  Te117     1.0  0.79897  0.14239  0.66024  1.0000
  O  Te118     1.0  0.81301  0.05614  0.90693  1.0000
  O  Te119     1.0  0.75828  0.04344  0.86416  1.0000
  O  Te120     1.0  0.74425  0.12971  0.61741  1.0000
  Mg  Mg59      1.0  0.78965  0.02522  0.95578  1.0000
  Mg  Mg60      1.0  0.76760  0.16063  0.56843  1.0000
  C  Sn121     1.0  0.28899  0.10699  0.87890  1.0000
  C   C317      1.0  0.30599  0.08926  0.80063  1.0000
  C  Sn122     1.0  0.29627  0.07201  0.68164  1.0000
  C  Sn123     1.0  0.26897  0.07250  0.63994  1.0000
  C   C318      1.0  0.25199  0.09022  0.71816  1.0000
  C  Sn124     1.0  0.26170  0.10748  0.83720  1.0000
  O  Te121     1.0  0.29914  0.12407  0.99748  1.0000
  O  Te122     1.0  0.31365  0.05445  0.60511  1.0000
  O  Te123     1.0  0.25883  0.05540  0.52125  1.0000
  O  Te124     1.0  0.24433  0.12503  0.91368  1.0000
  Mg  Mg61      1.0  0.29037  0.03510  0.45135  1.0000
  Mg  Mg62      1.0  0.26878  0.14621  0.06739  1.0000
  C  Sn125     1.0  0.02477  0.06541  0.68806  1.0000
  C   C319      1.0  0.00799  0.08421  0.75807  1.0000
  C  Sn126     1.0  0.01824  0.10834  0.81346  1.0000
  C  Sn127     1.0  0.04583  0.11379  0.79847  1.0000
  C   C320      1.0  0.06259  0.09499  0.72847  1.0000
  C  Sn128     1.0  0.05236  0.07086  0.67306  1.0000
  O  Te125     1.0  0.01410  0.04143  0.63351  1.0000
  O  Te126     1.0  0.00107  0.12682  0.88308  1.0000
  O  Te127     1.0  0.05649  0.13780  0.85309  1.0000
  O  Te128     1.0  0.06952  0.05239  0.60346  1.0000
  Mg  Mg63      1.0  0.02506  0.15665  0.93914  1.0000
  Mg  Mg64      1.0  0.04554  0.02256  0.54728  1.0000
