data_image0
_chemical_formula_structural       C4NC4NC4NC4NCuC4H8BO2C5HCHO2B2O2C5HCHO2B2O2C5HCHO2B2O2C5HCHO2BC4NCNCHC2HCHCHC4NCNCHC2HCHCHCuC4NCNCHC2HCHCHC4NCNCHC2HCHCHCuBO2C5HCHO2B2O2C5HCHO2BC4NCNCHC2HCHCHC4NCNCHC2HCHCHBO2C5HCHO2B2O2C5HCHO2BCuC4NC4NC4NC4NCuC4H8BO2C5HCHO2B2O2C5HCHO2B2O2C5HCHO2B2O2C5HCHO2BC4NCNCHC2HCHCHC4NCNCHC2HCHCHCuC4NCNCHC2HCHCHC4NCNCHC2HCHCHCuBO2C5HCHO2B2O2C5HCHO2BC4NCNCHC2HCHCHC4NCNCHC2HCHCHBO2C5HCHO2B2O2C5HCHO2BCuC2Sn2C2HTe2HMgC2Sn2C2HTe2HMgC2Sn2C2HTe2HMgC2Sn2C2HTe2HMgC2Sn2C2HTe2HMgC2Sn2C2HTe2HMgC2Sn2C2HTe2HMgC2Sn2C2HTe2HMgC2Sn2C2HTe2HMgC2Sn2C2HTe2HMgC2Sn2C2HTe2HMgC2Sn2C2HTe2HMgC2Sn2C2HTe2HMgC2Sn2C2HTe2HMgC2Sn2C2HTe2HMgC2Sn2C2HTe2HMgC2Sn2C2HTe2HMgC2Sn2C2HTe2HMgC2Sn2C2HTe2HMgC2Sn2C2HTe2HMgC2Sn2C2HTe2HMgC2Sn2C2HTe2HMgC2Sn2C2HTe2HMgC2Sn2C2HTe2HMgC2Sn2C2HTe2HMgC2Sn2C2HTe2HMgC2Sn2C2HTe2HMgC2Sn2C2HTe2HMgC2Sn2C2HTe2HMgC2Sn2C2HTe2HMgC2Sn2C2HTe2HMgC2Sn2C2HTe2HMg
_chemical_formula_sum              "C384 N32 Cu8 H160 B32 O64 Sn64 Te64 Mg32"
_cell_length_a       50.2945
_cell_length_b       50.3049
_cell_length_c       8.12093
_cell_angle_alpha    89.6085
_cell_angle_beta     89.5977
_cell_angle_gamma    90.3969

_symmetry_space_group_name_H-M    'P1'
_space_group_IT_number       1

loop_
  _space_group_symop_operation_xyz
  'x, y, z'

loop_
  _atom_site_type_symbol
  _atom_site_label
  _atom_site_symmetry_multiplicity
  _atom_site_fract_x
  _atom_site_fract_y
  _atom_site_fract_z
  _atom_site_occupancy
  C   C1        1.0  0.47825  0.63878  0.15444  1.0000
  C   C2        1.0  0.45925  0.65807  0.15320  1.0000
  C   C3        1.0  0.46549  0.61444  0.20859  1.0000
  C   C4        1.0  0.43470  0.64575  0.20703  1.0000
  N   N1        1.0  0.43866  0.61886  0.23312  1.0000
  C   C5        1.0  0.46495  0.56631  0.27269  1.0000
  C   C6        1.0  0.47721  0.54172  0.32226  1.0000
  C   C7        1.0  0.45773  0.52265  0.32501  1.0000
  C   C8        1.0  0.43338  0.53533  0.27601  1.0000
  N   N2        1.0  0.43797  0.56224  0.25206  1.0000
  C   C9        1.0  0.38557  0.53579  0.20900  1.0000
  C   C10       1.0  0.36131  0.52356  0.15255  1.0000
  C   C11       1.0  0.34235  0.54287  0.14970  1.0000
  C   C12       1.0  0.35482  0.56708  0.20500  1.0000
  N   N3        1.0  0.38152  0.56265  0.23277  1.0000
  C   C13       1.0  0.35511  0.61490  0.27091  1.0000
  C   C14       1.0  0.34275  0.63940  0.32011  1.0000
  C   C15       1.0  0.36215  0.65855  0.31924  1.0000
  C   C16       1.0  0.38660  0.64593  0.27041  1.0000
  N   N4        1.0  0.38213  0.61903  0.24913  1.0000
  Cu  Cu1       1.0  0.41011  0.59069  0.24315  1.0000
  C   C17       1.0  0.34151  0.59104  0.23695  1.0000
  C   C18       1.0  0.40921  0.52213  0.24424  1.0000
  C   C19       1.0  0.47862  0.59030  0.23965  1.0000
  C   C20       1.0  0.41078  0.65928  0.23755  1.0000
  H   H1        1.0  0.32177  0.54085  0.11398  1.0000
  H   H2        1.0  0.35907  0.50288  0.11968  1.0000
  H   H3        1.0  0.45977  0.50180  0.35560  1.0000
  H   H4        1.0  0.49806  0.53926  0.34996  1.0000
  H   H5        1.0  0.49906  0.64087  0.12224  1.0000
  H   H6        1.0  0.46164  0.67877  0.11893  1.0000
  H   H7        1.0  0.36008  0.67939  0.34752  1.0000
  H   H8        1.0  0.32192  0.64176  0.34986  1.0000
  B   B1        1.0  0.59514  0.59174  0.21325  1.0000
  O   O1        1.0  0.61136  0.57400  0.12566  1.0000
  O   O2        1.0  0.61070  0.60990  0.30209  1.0000
  C   C21       1.0  0.63725  0.58088  0.16667  1.0000
  C   C22       1.0  0.63680  0.60271  0.27287  1.0000
  C   C23       1.0  0.66068  0.56866  0.11600  1.0000
  C   C24       1.0  0.65960  0.61430  0.33834  1.0000
  C   C25       1.0  0.68350  0.58019  0.18203  1.0000
  H   H9        1.0  0.66112  0.55194  0.03231  1.0000
  C   C26       1.0  0.68300  0.60205  0.28798  1.0000
  H   H10       1.0  0.65908  0.63087  0.42319  1.0000
  O   O3        1.0  0.70965  0.57266  0.15636  1.0000
  O   O4        1.0  0.70879  0.60863  0.33222  1.0000
  B   B2        1.0  0.72507  0.59058  0.24787  1.0000
  B   B3        1.0  0.40553  0.40560  0.24801  1.0000
  O   O5        1.0  0.38644  0.38904  0.32533  1.0000
  O   O6        1.0  0.42470  0.39039  0.16544  1.0000
  C   C27       1.0  0.39417  0.36331  0.28885  1.0000
  C   C28       1.0  0.41727  0.36420  0.19138  1.0000
  C   C29       1.0  0.38194  0.33961  0.33822  1.0000
  C   C30       1.0  0.43002  0.34166  0.13246  1.0000
  C   C31       1.0  0.39481  0.31704  0.28032  1.0000
  H   H11       1.0  0.36432  0.33876  0.41609  1.0000
  C   C32       1.0  0.41777  0.31799  0.18157  1.0000
  H   H12       1.0  0.44757  0.34248  0.05401  1.0000
  O   O7        1.0  0.38767  0.29075  0.30812  1.0000
  O   O8        1.0  0.42549  0.29236  0.14338  1.0000
  B   B4        1.0  0.40677  0.27571  0.22284  1.0000
  B   B5        1.0  0.22503  0.59009  0.21783  1.0000
  O   O9        1.0  0.20922  0.60857  0.13333  1.0000
  O   O10       1.0  0.20908  0.57121  0.30077  1.0000
  C   C33       1.0  0.18320  0.60112  0.16757  1.0000
  C   C34       1.0  0.18311  0.57841  0.26852  1.0000
  C   C35       1.0  0.16011  0.61353  0.11440  1.0000
  C   C36       1.0  0.15994  0.56607  0.32606  1.0000
  C   C37       1.0  0.13695  0.60118  0.17180  1.0000
  H   H13       1.0  0.16011  0.63100  0.03521  1.0000
  C   C38       1.0  0.13684  0.57851  0.27313  1.0000
  H   H14       1.0  0.15992  0.54869  0.40600  1.0000
  O   O11       1.0  0.11101  0.60862  0.14110  1.0000
  O   O12       1.0  0.11080  0.57132  0.30908  1.0000
  B   B6        1.0  0.09502  0.59008  0.22684  1.0000
  B   B7        1.0  0.40959  0.77593  0.22894  1.0000
  O   O13       1.0  0.42862  0.79183  0.30855  1.0000
  O   O14       1.0  0.39044  0.79184  0.15078  1.0000
  C   C39       1.0  0.42104  0.81781  0.27894  1.0000
  C   C40       1.0  0.39788  0.81783  0.18400  1.0000
  C   C41       1.0  0.43369  0.84091  0.33231  1.0000
  C   C42       1.0  0.38528  0.84106  0.13373  1.0000
  C   C43       1.0  0.42103  0.86413  0.28248  1.0000
  H   H15       1.0  0.45146  0.84076  0.40739  1.0000
  C   C44       1.0  0.39786  0.86417  0.18763  1.0000
  H   H16       1.0  0.36760  0.84120  0.05789  1.0000
  O   O15       1.0  0.42842  0.89013  0.31632  1.0000
  O   O16       1.0  0.39020  0.89016  0.15863  1.0000
  B   B8        1.0  0.40916  0.90599  0.23921  1.0000
  C   C45       1.0  0.84154  0.59136  0.24770  1.0000
  C   C46       1.0  0.85492  0.61528  0.20982  1.0000
  C   C47       1.0  0.85502  0.56756  0.28145  1.0000
  C   C48       1.0  0.84242  0.63939  0.15441  1.0000
  N   N5        1.0  0.88181  0.61980  0.23147  1.0000
  C   C49       1.0  0.84269  0.54312  0.33695  1.0000
  N   N6        1.0  0.88180  0.56343  0.25312  1.0000
  C   C50       1.0  0.86158  0.65877  0.15145  1.0000
  H   H17       1.0  0.82169  0.64131  0.12253  1.0000
  C   C51       1.0  0.88600  0.64665  0.20439  1.0000
  C   C52       1.0  0.86181  0.52398  0.33398  1.0000
  H   H18       1.0  0.82204  0.54081  0.37233  1.0000
  C   C53       1.0  0.88605  0.53657  0.27689  1.0000
  H   H19       1.0  0.85931  0.67944  0.11751  1.0000
  C   C54       1.0  0.90994  0.66038  0.23496  1.0000
  H   H20       1.0  0.85961  0.50319  0.36638  1.0000
  C   C55       1.0  0.90985  0.52327  0.23965  1.0000
  C   C56       1.0  0.93408  0.64720  0.26455  1.0000
  C   C57       1.0  0.93377  0.53681  0.20350  1.0000
  C   C58       1.0  0.95861  0.65978  0.31309  1.0000
  N   N7        1.0  0.93830  0.62034  0.24066  1.0000
  C   C59       1.0  0.95807  0.52451  0.14905  1.0000
  N   N8        1.0  0.93812  0.56372  0.22593  1.0000
  C   C60       1.0  0.97783  0.64069  0.31071  1.0000
  H   H21       1.0  0.96093  0.68052  0.34460  1.0000
  C   C61       1.0  0.96523  0.61621  0.26119  1.0000
  C   C62       1.0  0.97731  0.54382  0.14673  1.0000
  H   H22       1.0  0.96022  0.50378  0.11794  1.0000
  C   C63       1.0  0.96495  0.56815  0.19932  1.0000
  H   H23       1.0  0.99869  0.64303  0.33889  1.0000
  C   C64       1.0  0.97851  0.59220  0.22991  1.0000
  H   H24       1.0  0.99803  0.54168  0.11332  1.0000
  Cu  Cu2       1.0  0.91004  0.59182  0.23798  1.0000
  C   C65       1.0  0.40684  0.15928  0.21917  1.0000
  C   C66       1.0  0.43070  0.14607  0.25538  1.0000
  C   C67       1.0  0.38281  0.14571  0.18881  1.0000
  C   C68       1.0  0.45499  0.15871  0.30809  1.0000
  N   N9        1.0  0.43486  0.11912  0.23735  1.0000
  C   C69       1.0  0.35838  0.15796  0.13702  1.0000
  N   N10       1.0  0.37837  0.11895  0.21834  1.0000
  C   C70       1.0  0.47398  0.13945  0.31595  1.0000
  H   H25       1.0  0.45728  0.17963  0.33422  1.0000
  C   C71       1.0  0.46161  0.11492  0.26557  1.0000
  C   C72       1.0  0.33898  0.13882  0.14485  1.0000
  H   H26       1.0  0.35626  0.17855  0.10040  1.0000
  C   C73       1.0  0.35140  0.11461  0.19976  1.0000
  H   H27       1.0  0.49455  0.14174  0.35142  1.0000
  C   C74       1.0  0.47502  0.09100  0.23442  1.0000
  H   H28       1.0  0.31811  0.14095  0.11703  1.0000
  C   C75       1.0  0.33794  0.09072  0.23826  1.0000
  C   C76       1.0  0.46143  0.06718  0.19908  1.0000
  C   C77       1.0  0.35133  0.06683  0.27219  1.0000
  C   C78       1.0  0.47362  0.04304  0.14241  1.0000
  N   N11       1.0  0.43454  0.06284  0.22470  1.0000
  C   C79       1.0  0.33886  0.04250  0.32849  1.0000
  N   N12       1.0  0.37813  0.06257  0.24580  1.0000
  C   C80       1.0  0.45428  0.02385  0.14217  1.0000
  H   H29       1.0  0.49430  0.04098  0.10777  1.0000
  C   C81       1.0  0.43009  0.03605  0.19934  1.0000
  C   C82       1.0  0.35800  0.02333  0.32868  1.0000
  H   H30       1.0  0.31813  0.04031  0.36221  1.0000
  C   C83       1.0  0.38235  0.03575  0.27213  1.0000
  H   H31       1.0  0.45627  0.00327  0.10714  1.0000
  C   C84       1.0  0.40623  0.02243  0.23699  1.0000
  H   H32       1.0  0.35567  0.00264  0.36304  1.0000
  Cu  Cu3       1.0  0.40642  0.09091  0.23148  1.0000
  B   B9        1.0  0.90785  0.40680  0.23673  1.0000
  O   O17       1.0  0.88985  0.39078  0.14978  1.0000
  O   O18       1.0  0.92592  0.39108  0.32508  1.0000
  C   C85       1.0  0.89699  0.36481  0.18542  1.0000
  C   C86       1.0  0.91890  0.36501  0.29099  1.0000
  C   C87       1.0  0.88520  0.34155  0.12785  1.0000
  C   C88       1.0  0.93099  0.34198  0.34904  1.0000
  C   C89       1.0  0.89738  0.31851  0.18514  1.0000
  H   H33       1.0  0.86833  0.34138  0.04522  1.0000
  C   C90       1.0  0.91934  0.31871  0.29040  1.0000
  H   H34       1.0  0.94765  0.34216  0.43324  1.0000
  O   O19       1.0  0.89041  0.29243  0.15056  1.0000
  O   O20       1.0  0.92674  0.29276  0.32483  1.0000
  B   B10       1.0  0.90868  0.27676  0.23811  1.0000
  B   B11       1.0  0.90579  0.77678  0.23053  1.0000
  O   O21       1.0  0.88644  0.79259  0.30777  1.0000
  O   O22       1.0  0.92487  0.79268  0.14923  1.0000
  C   C91       1.0  0.89403  0.81865  0.27328  1.0000
  C   C92       1.0  0.91734  0.81865  0.17763  1.0000
  C   C93       1.0  0.88161  0.84191  0.32406  1.0000
  C   C94       1.0  0.93022  0.84174  0.12324  1.0000
  C   C95       1.0  0.89451  0.86501  0.26967  1.0000
  H   H35       1.0  0.86395  0.84208  0.40157  1.0000
  C   C96       1.0  0.91779  0.86499  0.17379  1.0000
  H   H36       1.0  0.94810  0.84155  0.04774  1.0000
  O   O23       1.0  0.88733  0.89102  0.30077  1.0000
  O   O24       1.0  0.92574  0.89100  0.14209  1.0000
  B   B12       1.0  0.90677  0.90687  0.22211  1.0000
  C   C97       1.0  0.90687  0.16037  0.23917  1.0000
  C   C98       1.0  0.88293  0.14688  0.27553  1.0000
  C   C99       1.0  0.93062  0.14705  0.20145  1.0000
  C   C100      1.0  0.85864  0.15921  0.32998  1.0000
  N   N13       1.0  0.87852  0.11999  0.25262  1.0000
  C   C101      1.0  0.95486  0.15961  0.14433  1.0000
  N   N14       1.0  0.93485  0.12019  0.22485  1.0000
  C   C102      1.0  0.83934  0.13994  0.33167  1.0000
  H   H37       1.0  0.85652  0.17994  0.36150  1.0000
  C   C103      1.0  0.85168  0.11559  0.27933  1.0000
  C   C104      1.0  0.97398  0.14047  0.14078  1.0000
  H   H38       1.0  0.95700  0.18042  0.11255  1.0000
  C   C105      1.0  0.96162  0.11607  0.19675  1.0000
  H   H39       1.0  0.81857  0.14205  0.36424  1.0000
  C   C106      1.0  0.83818  0.09152  0.24944  1.0000
  H   H40       1.0  0.99459  0.14275  0.10439  1.0000
  C   C107      1.0  0.97509  0.09230  0.23148  1.0000
  C   C108      1.0  0.85146  0.06761  0.21537  1.0000
  C   C109      1.0  0.96172  0.06827  0.26736  1.0000
  C   C110      1.0  0.83883  0.04323  0.16426  1.0000
  N   N15       1.0  0.87840  0.06347  0.23448  1.0000
  C   C111      1.0  0.97420  0.04398  0.32030  1.0000
  N   N16       1.0  0.93486  0.06379  0.24464  1.0000
  C   C112      1.0  0.85807  0.02420  0.15908  1.0000
  H   H41       1.0  0.81795  0.04092  0.13676  1.0000
  C   C113      1.0  0.88260  0.03668  0.20856  1.0000
  C   C114      1.0  0.95506  0.02458  0.32037  1.0000
  H   H42       1.0  0.99492  0.04193  0.35190  1.0000
  C   C115      1.0  0.93064  0.03688  0.26898  1.0000
  H   H43       1.0  0.85576  0.00355  0.12546  1.0000
  C   C116      1.0  0.90664  0.02333  0.23779  1.0000
  H   H44       1.0  0.95736  0.00380  0.35135  1.0000
  B   B13       1.0  0.59162  0.08993  0.24108  1.0000
  O   O25       1.0  0.60708  0.07115  0.32532  1.0000
  O   O26       1.0  0.60796  0.10857  0.15843  1.0000
  C   C117      1.0  0.63327  0.07822  0.29254  1.0000
  C   C118      1.0  0.63378  0.10105  0.19273  1.0000
  C   C119      1.0  0.65617  0.06550  0.34665  1.0000
  C   C120      1.0  0.65720  0.11346  0.13967  1.0000
  C   C121      1.0  0.67958  0.07783  0.29285  1.0000
  H   H45       1.0  0.65587  0.04794  0.42508  1.0000
  C   C122      1.0  0.68008  0.10091  0.19515  1.0000
  H   H46       1.0  0.65757  0.13105  0.06142  1.0000
  O   O27       1.0  0.70542  0.07022  0.32624  1.0000
  O   O28       1.0  0.70624  0.10845  0.16601  1.0000
  B   B14       1.0  0.72169  0.08943  0.24832  1.0000
  B   B15       1.0  0.22139  0.09046  0.25983  1.0000
  O   O29       1.0  0.20520  0.07139  0.18314  1.0000
  O   O30       1.0  0.20582  0.10958  0.34091  1.0000
  C   C123      1.0  0.17935  0.07901  0.21625  1.0000
  C   C124      1.0  0.17966  0.10220  0.31093  1.0000
  C   C125      1.0  0.15607  0.06653  0.16487  1.0000
  C   C126      1.0  0.15663  0.11516  0.36163  1.0000
  C   C127      1.0  0.13310  0.07949  0.21581  1.0000
  H   H47       1.0  0.15584  0.04877  0.08978  1.0000
  C   C128      1.0  0.13331  0.10285  0.30871  1.0000
  H   H48       1.0  0.15686  0.13312  0.43480  1.0000
  O   O31       1.0  0.10709  0.07246  0.18184  1.0000
  O   O32       1.0  0.10734  0.11108  0.33440  1.0000
  B   B16       1.0  0.09137  0.09216  0.25462  1.0000
  Cu  Cu4       1.0  0.90660  0.09185  0.23899  1.0000
  C   C129      1.0  0.47471  0.63930  0.64546  1.0000
  C   C130      1.0  0.45544  0.65830  0.64500  1.0000
  C   C131      1.0  0.46239  0.61487  0.70152  1.0000
  C   C132      1.0  0.43112  0.64570  0.70037  1.0000
  N   N17       1.0  0.43551  0.61891  0.72680  1.0000
  C   C133      1.0  0.46252  0.56710  0.77379  1.0000
  C   C134      1.0  0.47500  0.54298  0.82948  1.0000
  C   C135      1.0  0.45590  0.52355  0.83145  1.0000
  C   C136      1.0  0.43154  0.53556  0.77671  1.0000
  N   N18       1.0  0.43570  0.56245  0.75022  1.0000
  C   C137      1.0  0.38380  0.53478  0.70849  1.0000
  C   C138      1.0  0.35957  0.52213  0.65506  1.0000
  C   C139      1.0  0.34036  0.54121  0.65179  1.0000
  C   C140      1.0  0.35262  0.56569  0.70405  1.0000
  N   N19       1.0  0.37940  0.56164  0.73064  1.0000
  C   C141      1.0  0.35233  0.61360  0.76942  1.0000
  C   C142      1.0  0.33968  0.63773  0.82255  1.0000
  C   C143      1.0  0.35883  0.65713  0.82426  1.0000
  C   C144      1.0  0.38330  0.64508  0.77053  1.0000
  N   N20       1.0  0.37920  0.61820  0.74635  1.0000
  Cu  Cu5       1.0  0.40745  0.59027  0.73799  1.0000
  C   C145      1.0  0.33908  0.58956  0.73506  1.0000
  C   C146      1.0  0.40781  0.52169  0.74280  1.0000
  C   C147      1.0  0.47589  0.59111  0.73672  1.0000
  C   C148      1.0  0.40709  0.65885  0.73397  1.0000
  H   H49       1.0  0.31971  0.53884  0.61816  1.0000
  H   H50       1.0  0.35740  0.50133  0.62499  1.0000
  H   H51       1.0  0.45816  0.50289  0.86564  1.0000
  H   H52       1.0  0.49571  0.54103  0.86167  1.0000
  H   H53       1.0  0.49541  0.64177  0.61182  1.0000
  H   H54       1.0  0.45760  0.67903  0.61139  1.0000
  H   H55       1.0  0.35647  0.67773  0.85805  1.0000
  H   H56       1.0  0.31885  0.63969  0.85320  1.0000
  B   B17       1.0  0.59241  0.59161  0.71788  1.0000
  O   O33       1.0  0.60812  0.57140  0.64959  1.0000
  O   O34       1.0  0.60846  0.61177  0.78446  1.0000
  C   C149      1.0  0.63417  0.57910  0.67747  1.0000
  C   C150      1.0  0.63437  0.60351  0.75953  1.0000
  C   C151      1.0  0.65721  0.56552  0.63395  1.0000
  C   C152      1.0  0.65763  0.61633  0.80820  1.0000
  C   C153      1.0  0.68048  0.57840  0.68206  1.0000
  H   H57       1.0  0.65703  0.54685  0.56772  1.0000
  C   C154      1.0  0.68065  0.60262  0.76625  1.0000
  H   H58       1.0  0.65781  0.63496  0.87483  1.0000
  O   O35       1.0  0.70641  0.57004  0.65866  1.0000
  O   O36       1.0  0.70663  0.60984  0.79994  1.0000
  B   B18       1.0  0.72241  0.58960  0.73260  1.0000
  B   B19       1.0  0.41059  0.40515  0.73083  1.0000
  O   O37       1.0  0.39143  0.38869  0.80738  1.0000
  O   O38       1.0  0.42992  0.38987  0.64961  1.0000
  C   C155      1.0  0.39881  0.36295  0.76969  1.0000
  C   C156      1.0  0.42227  0.36360  0.67555  1.0000
  C   C157      1.0  0.38583  0.33946  0.81530  1.0000
  C   C158      1.0  0.43501  0.34074  0.62032  1.0000
  C   C159      1.0  0.39841  0.31665  0.75897  1.0000
  H   H59       1.0  0.36782  0.33895  0.88975  1.0000
  C   C160      1.0  0.42210  0.31721  0.66697  1.0000
  H   H60       1.0  0.45306  0.34123  0.54625  1.0000
  O   O39       1.0  0.39040  0.29054  0.78375  1.0000
  O   O40       1.0  0.42969  0.29132  0.63305  1.0000
  B   B20       1.0  0.40997  0.27505  0.70651  1.0000
  B   B21       1.0  0.22273  0.58990  0.72234  1.0000
  O   O41       1.0  0.20736  0.60988  0.64893  1.0000
  O   O42       1.0  0.20639  0.57007  0.79296  1.0000
  C   C161      1.0  0.18116  0.60231  0.67652  1.0000
  C   C162      1.0  0.18060  0.57823  0.76439  1.0000
  C   C163      1.0  0.15827  0.61567  0.62841  1.0000
  C   C164      1.0  0.15717  0.56554  0.81425  1.0000
  C   C165      1.0  0.13482  0.60292  0.67774  1.0000
  H   H61       1.0  0.15870  0.63410  0.55809  1.0000
  C   C166      1.0  0.13431  0.57896  0.76696  1.0000
  H   H62       1.0  0.15677  0.54721  0.88559  1.0000
  O   O43       1.0  0.10896  0.61108  0.64981  1.0000
  O   O44       1.0  0.10818  0.57161  0.79871  1.0000
  B   B22       1.0  0.09272  0.59158  0.72495  1.0000
  B   B23       1.0  0.40553  0.77522  0.71170  1.0000
  O   O45       1.0  0.42461  0.79093  0.79176  1.0000
  O   O46       1.0  0.38641  0.79120  0.63397  1.0000
  C   C167      1.0  0.41701  0.81692  0.76405  1.0000
  C   C168      1.0  0.39387  0.81718  0.66886  1.0000
  C   C169      1.0  0.42955  0.83983  0.82042  1.0000
  C   C170      1.0  0.38130  0.84054  0.62018  1.0000
  C   C171      1.0  0.41701  0.86313  0.77151  1.0000
  H   H63       1.0  0.44715  0.83955  0.89697  1.0000
  C   C172      1.0  0.39390  0.86353  0.67609  1.0000
  H   H64       1.0  0.36356  0.84079  0.54497  1.0000
  O   O47       1.0  0.42458  0.88890  0.80787  1.0000
  O   O48       1.0  0.38641  0.88971  0.64976  1.0000
  B   B24       1.0  0.40566  0.90514  0.73087  1.0000
  C   C173      1.0  0.83904  0.59004  0.74454  1.0000
  C   C174      1.0  0.85222  0.61433  0.71202  1.0000
  C   C175      1.0  0.85275  0.56620  0.77456  1.0000
  C   C176      1.0  0.83947  0.63863  0.66165  1.0000
  N   N21       1.0  0.87914  0.61895  0.73177  1.0000
  C   C177      1.0  0.84058  0.54148  0.82669  1.0000
  N   N22       1.0  0.87966  0.56242  0.74848  1.0000
  C   C178      1.0  0.85859  0.65805  0.65720  1.0000
  H   H65       1.0  0.81857  0.64065  0.63441  1.0000
  C   C179      1.0  0.88320  0.64589  0.70614  1.0000
  C   C180      1.0  0.85999  0.52261  0.82476  1.0000
  H   H66       1.0  0.81987  0.53881  0.86002  1.0000
  C   C181      1.0  0.88424  0.53557  0.77116  1.0000
  H   H67       1.0  0.85616  0.67877  0.62469  1.0000
  C   C182      1.0  0.90719  0.65962  0.73507  1.0000
  H   H68       1.0  0.85797  0.50174  0.85543  1.0000
  C   C183      1.0  0.90836  0.52263  0.73692  1.0000
  C   C184      1.0  0.93129  0.64650  0.76632  1.0000
  C   C185      1.0  0.93212  0.53649  0.70084  1.0000
  C   C186      1.0  0.95559  0.65925  0.81763  1.0000
  N   N23       1.0  0.93573  0.61974  0.74189  1.0000
  C   C187      1.0  0.95654  0.52448  0.64584  1.0000
  N   N24       1.0  0.93616  0.56341  0.72368  1.0000
  C   C188      1.0  0.97494  0.64033  0.81662  1.0000
  H   H69       1.0  0.95760  0.67999  0.84963  1.0000
  C   C189      1.0  0.96267  0.61587  0.76417  1.0000
  C   C190      1.0  0.97554  0.54400  0.64299  1.0000
  H   H70       1.0  0.95896  0.50377  0.61473  1.0000
  C   C191      1.0  0.96296  0.56813  0.69672  1.0000
  H   H71       1.0  0.99568  0.64278  0.84770  1.0000
  C   C192      1.0  0.97626  0.59219  0.72956  1.0000
  H   H72       1.0  0.99626  0.54211  0.60908  1.0000
  Cu  Cu6       1.0  0.90763  0.59113  0.73669  1.0000
  C   C193      1.0  0.41083  0.15839  0.71792  1.0000
  C   C194      1.0  0.43469  0.14524  0.75535  1.0000
  C   C195      1.0  0.38697  0.14460  0.68649  1.0000
  C   C196      1.0  0.45888  0.15794  0.80883  1.0000
  N   N25       1.0  0.43899  0.11830  0.73649  1.0000
  C   C197      1.0  0.36264  0.15660  0.63111  1.0000
  N   N26       1.0  0.38262  0.11786  0.71712  1.0000
  C   C198      1.0  0.47802  0.13881  0.81460  1.0000
  H   H73       1.0  0.46103  0.17880  0.83756  1.0000
  C   C199      1.0  0.46574  0.11420  0.76426  1.0000
  C   C200      1.0  0.34338  0.13733  0.63664  1.0000
  H   H74       1.0  0.36048  0.17714  0.59441  1.0000
  C   C201      1.0  0.35572  0.11335  0.69555  1.0000
  H   H75       1.0  0.49863  0.14120  0.84905  1.0000
  C   C202      1.0  0.47922  0.09018  0.73590  1.0000
  H   H76       1.0  0.32264  0.13928  0.60500  1.0000
  C   C203      1.0  0.34224  0.08964  0.73782  1.0000
  C   C204      1.0  0.46587  0.06601  0.70558  1.0000
  C   C205      1.0  0.35571  0.06603  0.77681  1.0000
  C   C206      1.0  0.47834  0.04155  0.65597  1.0000
  N   N27       1.0  0.43892  0.06171  0.72782  1.0000
  C   C207      1.0  0.34343  0.04186  0.83736  1.0000
  N   N28       1.0  0.38247  0.06176  0.74826  1.0000
  C   C208      1.0  0.45896  0.02236  0.65480  1.0000
  H   H77       1.0  0.49920  0.03928  0.62679  1.0000
  C   C209      1.0  0.43452  0.03481  0.70503  1.0000
  C   C210      1.0  0.36249  0.02266  0.83479  1.0000
  H   H78       1.0  0.32290  0.03976  0.87589  1.0000
  C   C211      1.0  0.38667  0.03499  0.77489  1.0000
  H   H79       1.0  0.46112  0.00161  0.62377  1.0000
  C   C212      1.0  0.41039  0.02147  0.73869  1.0000
  H   H80       1.0  0.36035  0.00197  0.86950  1.0000
  Cu  Cu7       1.0  0.41082  0.08991  0.73156  1.0000
  B   B25       1.0  0.91065  0.40621  0.74676  1.0000
  O   O49       1.0  0.89007  0.39040  0.68272  1.0000
  O   O50       1.0  0.93115  0.39029  0.80918  1.0000
  C   C213      1.0  0.89801  0.36442  0.70693  1.0000
  C   C214      1.0  0.92289  0.36433  0.78360  1.0000
  C   C215      1.0  0.88432  0.34132  0.66474  1.0000
  C   C216      1.0  0.93629  0.34114  0.82573  1.0000
  C   C217      1.0  0.89766  0.31813  0.70725  1.0000
  H   H81       1.0  0.86518  0.34129  0.60387  1.0000
  C   C218      1.0  0.92249  0.31803  0.78440  1.0000
  H   H82       1.0  0.95547  0.34117  0.88615  1.0000
  O   O51       1.0  0.88929  0.29221  0.68215  1.0000
  O   O52       1.0  0.93029  0.29201  0.80952  1.0000
  B   B26       1.0  0.90973  0.27623  0.74498  1.0000
  B   B27       1.0  0.90691  0.77617  0.72292  1.0000
  O   O53       1.0  0.88756  0.79188  0.80040  1.0000
  O   O54       1.0  0.92593  0.79224  0.64156  1.0000
  C   C219      1.0  0.89498  0.81794  0.76735  1.0000
  C   C220      1.0  0.91827  0.81815  0.67161  1.0000
  C   C221      1.0  0.88229  0.84095  0.81965  1.0000
  C   C222      1.0  0.93093  0.84143  0.61880  1.0000
  C   C223      1.0  0.89499  0.86424  0.76730  1.0000
  H   H83       1.0  0.86451  0.84074  0.89609  1.0000
  C   C224      1.0  0.91829  0.86442  0.67155  1.0000
  H   H84       1.0  0.94877  0.84165  0.54285  1.0000
  O   O55       1.0  0.88765  0.89018  0.80006  1.0000
  O   O56       1.0  0.92605  0.89044  0.64133  1.0000
  B   B28       1.0  0.90716  0.90619  0.72262  1.0000
  C   C225      1.0  0.91069  0.15972  0.73769  1.0000
  C   C226      1.0  0.88684  0.14612  0.77535  1.0000
  C   C227      1.0  0.93460  0.14644  0.70220  1.0000
  C   C228      1.0  0.86276  0.15834  0.83409  1.0000
  N   N29       1.0  0.88241  0.11927  0.75234  1.0000
  C   C229      1.0  0.95905  0.15907  0.64929  1.0000
  N   N30       1.0  0.93884  0.11953  0.72556  1.0000
  C   C230      1.0  0.84355  0.13903  0.83919  1.0000
  H   H85       1.0  0.86072  0.17904  0.86618  1.0000
  C   C231      1.0  0.85566  0.11483  0.78282  1.0000
  C   C232      1.0  0.97826  0.13999  0.64921  1.0000
  H   H86       1.0  0.96138  0.17988  0.61775  1.0000
  C   C233      1.0  0.96572  0.11541  0.70077  1.0000
  H   H87       1.0  0.82301  0.14106  0.87695  1.0000
  C   C234      1.0  0.84202  0.09097  0.75004  1.0000
  H   H88       1.0  0.99908  0.14244  0.61832  1.0000
  C   C235      1.0  0.97906  0.09138  0.73163  1.0000
  C   C236      1.0  0.85528  0.06722  0.71235  1.0000
  C   C237      1.0  0.96554  0.06729  0.76478  1.0000
  C   C238      1.0  0.84270  0.04311  0.65659  1.0000
  N   N31       1.0  0.88216  0.06293  0.73366  1.0000
  C   C239      1.0  0.97791  0.04287  0.81674  1.0000
  N   N32       1.0  0.93863  0.06297  0.74310  1.0000
  C   C240      1.0  0.86182  0.02397  0.65266  1.0000
  H   H89       1.0  0.82195  0.04102  0.62506  1.0000
  C   C241      1.0  0.88627  0.03620  0.70596  1.0000
  C   C242      1.0  0.95861  0.02362  0.81859  1.0000
  H   H90       1.0  0.99869  0.04069  0.84685  1.0000
  C   C243      1.0  0.93424  0.03605  0.76777  1.0000
  H   H91       1.0  0.85954  0.00341  0.61724  1.0000
  C   C244      1.0  0.91014  0.02265  0.73668  1.0000
  H   H92       1.0  0.96077  0.00285  0.85080  1.0000
  B   B29       1.0  0.59571  0.09137  0.73687  1.0000
  O   O57       1.0  0.61107  0.07133  0.80980  1.0000
  O   O58       1.0  0.61211  0.11109  0.66514  1.0000
  C   C245      1.0  0.63724  0.07886  0.78259  1.0000
  C   C246      1.0  0.63788  0.10285  0.69374  1.0000
  C   C247      1.0  0.65999  0.06559  0.83335  1.0000
  C   C248      1.0  0.66139  0.11551  0.64514  1.0000
  C   C249      1.0  0.68350  0.07829  0.78517  1.0000
  H   H93       1.0  0.65942  0.04738  0.90580  1.0000
  C   C250      1.0  0.68416  0.10216  0.69505  1.0000
  H   H94       1.0  0.66197  0.13384  0.57392  1.0000
  O   O59       1.0  0.70926  0.07029  0.81696  1.0000
  O   O60       1.0  0.71034  0.10969  0.66717  1.0000
  B   B30       1.0  0.72563  0.08997  0.74450  1.0000
  B   B31       1.0  0.22569  0.08830  0.76395  1.0000
  O   O61       1.0  0.20975  0.06785  0.69925  1.0000
  O   O62       1.0  0.20989  0.10835  0.83335  1.0000
  C   C251      1.0  0.18377  0.07587  0.72550  1.0000
  C   C252      1.0  0.18383  0.10029  0.80746  1.0000
  C   C253      1.0  0.16059  0.06280  0.67741  1.0000
  C   C254      1.0  0.16063  0.11361  0.85129  1.0000
  C   C255      1.0  0.13742  0.07630  0.71900  1.0000
  H   H95       1.0  0.16056  0.04411  0.61167  1.0000
  C   C256      1.0  0.13743  0.10051  0.80329  1.0000
  H   H96       1.0  0.16063  0.13237  0.91658  1.0000
  O   O63       1.0  0.11144  0.06890  0.68432  1.0000
  O   O64       1.0  0.11141  0.10871  0.82561  1.0000
  B   B32       1.0  0.09557  0.08917  0.75071  1.0000
  Cu  Cu8       1.0  0.91054  0.09121  0.73827  1.0000
  C   C257      1.0  0.54431  0.61356  0.32339  1.0000
  C   C258      1.0  0.56159  0.59570  0.24764  1.0000
  C  Sn1       1.0  0.55153  0.57466  0.15492  1.0000
  C  Sn2       1.0  0.52363  0.57151  0.13791  1.0000
  C   C259      1.0  0.50650  0.58950  0.21408  1.0000
  C   C260      1.0  0.51679  0.61048  0.30662  1.0000
  H   H97       1.0  0.55227  0.62980  0.39492  1.0000
  O  Te1       1.0  0.56908  0.55698  0.08011  1.0000
  O  Te2       1.0  0.51303  0.55067  0.04590  1.0000
  H   H98       1.0  0.50340  0.62432  0.36516  1.0000
  Mg  Mg1       1.0  0.54390  0.53062  0.96738  1.0000
  C   C261      1.0  0.77638  0.56821  0.15113  1.0000
  C   C262      1.0  0.75876  0.58449  0.23711  1.0000
  C  Sn3       1.0  0.76837  0.60583  0.32906  1.0000
  C  Sn4       1.0  0.79613  0.61091  0.33476  1.0000
  C   C263      1.0  0.81359  0.59451  0.24821  1.0000
  C   C264      1.0  0.80376  0.57321  0.15663  1.0000
  H   H99       1.0  0.76878  0.55173  0.08019  1.0000
  O  Te3       1.0  0.75050  0.62190  0.41429  1.0000
  O  Te4       1.0  0.80627  0.63211  0.42565  1.0000
  H   H100      1.0  0.81740  0.56061  0.08998  1.0000
  Mg  Mg2       1.0  0.77395  0.64837  0.52099  1.0000
  C   C265      1.0  0.42943  0.45615  0.14569  1.0000
  C   C266      1.0  0.41253  0.43915  0.23505  1.0000
  C  Sn5       1.0  0.39177  0.44950  0.32952  1.0000
  C  Sn6       1.0  0.38789  0.47739  0.33434  1.0000
  C   C267      1.0  0.40489  0.49423  0.24441  1.0000
  C   C268      1.0  0.42561  0.48366  0.15032  1.0000
  H   H101      1.0  0.44545  0.44797  0.07281  1.0000
  O  Te5       1.0  0.37508  0.43223  0.41811  1.0000
  O  Te6       1.0  0.36729  0.48827  0.42771  1.0000
  H   H102      1.0  0.43868  0.49683  0.08106  1.0000
  Mg  Mg3       1.0  0.34980  0.45658  0.52727  1.0000
  C   C269      1.0  0.38356  0.22422  0.31437  1.0000
  C   C270      1.0  0.40222  0.24201  0.24722  1.0000
  C  Sn7       1.0  0.42356  0.23263  0.15367  1.0000
  C  Sn8       1.0  0.42621  0.20493  0.12703  1.0000
  C   C271      1.0  0.40743  0.18730  0.19465  1.0000
  C   C272      1.0  0.38616  0.19690  0.28811  1.0000
  H   H103      1.0  0.36709  0.23165  0.38661  1.0000
  O  Te7       1.0  0.44203  0.25068  0.08752  1.0000
  O  Te8       1.0  0.44734  0.19502  0.03397  1.0000
  H   H104      1.0  0.37170  0.18312  0.34000  1.0000
  Mg  Mg4       1.0  0.46625  0.22640  0.96949  1.0000
  C   C273      1.0  0.29071  0.56810  0.33027  1.0000
  C   C274      1.0  0.30873  0.58492  0.24842  1.0000
  C  Sn9       1.0  0.29958  0.60622  0.15377  1.0000
  C  Sn10      1.0  0.27184  0.61072  0.14109  1.0000
  C   C275      1.0  0.25397  0.59379  0.22354  1.0000
  C   C276      1.0  0.26335  0.57253  0.31788  1.0000
  H   H105      1.0  0.29796  0.55166  0.40334  1.0000
  O  Te9       1.0  0.31786  0.62283  0.07275  1.0000
  O  Te10      1.0  0.26215  0.63187  0.04737  1.0000
  H   H106      1.0  0.24939  0.55952  0.38133  1.0000
  Mg  Mg5       1.0  0.29379  0.64789  0.95982  1.0000
  C   C277      1.0  0.04455  0.61360  0.12745  1.0000
  C   C278      1.0  0.06152  0.59704  0.21628  1.0000
  C  Sn11      1.0  0.05114  0.57617  0.31172  1.0000
  C  Sn12      1.0  0.02324  0.57183  0.31808  1.0000
  C   C279      1.0  0.00643  0.58849  0.22867  1.0000
  C   C280      1.0  0.01703  0.60933  0.13360  1.0000
  H   H107      1.0  0.05275  0.62972  0.05381  1.0000
  O  Te11      1.0  0.06837  0.55982  0.39975  1.0000
  O  Te12      1.0  0.01234  0.55110  0.41243  1.0000
  H   H108      1.0  0.00389  0.62214  0.06475  1.0000
  Mg  Mg6       1.0  0.04398  0.53420  0.51071  1.0000
  C   C281      1.0  0.38754  0.70903  0.13622  1.0000
  C   C282      1.0  0.40647  0.69194  0.20313  1.0000
  C  Sn13      1.0  0.42751  0.70212  0.29536  1.0000
  C  Sn14      1.0  0.42959  0.72993  0.32090  1.0000
  C   C283      1.0  0.41054  0.74686  0.25353  1.0000
  C   C284      1.0  0.38957  0.73647  0.16140  1.0000
  H   H109      1.0  0.37130  0.70100  0.06501  1.0000
  O  Te13      1.0  0.44625  0.68476  0.36128  1.0000
  O  Te14      1.0  0.45041  0.74063  0.41263  1.0000
  H   H110      1.0  0.37490  0.74970  0.10970  1.0000
  Mg  Mg7       1.0  0.47103  0.70888  0.47732  1.0000
  C   C285      1.0  0.43166  0.95807  0.32936  1.0000
  C   C286      1.0  0.41328  0.93978  0.26759  1.0000
  C  Sn15      1.0  0.39099  0.94861  0.18183  1.0000
  C  Sn16      1.0  0.38709  0.97627  0.15762  1.0000
  C   C287      1.0  0.40561  0.99440  0.21980  1.0000
  C   C288      1.0  0.42783  0.98535  0.30548  1.0000
  H   H111      1.0  0.44886  0.95107  0.39557  1.0000
  O  Te15      1.0  0.37282  0.93008  0.12099  1.0000
  O  Te16      1.0  0.36500  0.98563  0.07230  1.0000
  H   H112      1.0  0.44207  0.99951  0.35319  1.0000
  Mg  Mg8       1.0  0.34582  0.95260  0.01287  1.0000
  C   C289      1.0  0.88642  0.47357  0.13723  1.0000
  C   C290      1.0  0.90331  0.49069  0.22282  1.0000
  C  Sn17      1.0  0.92433  0.48049  0.31483  1.0000
  C  Sn18      1.0  0.92846  0.45263  0.32099  1.0000
  C   C291      1.0  0.91146  0.43567  0.23483  1.0000
  C   C292      1.0  0.89049  0.44609  0.14319  1.0000
  H   H113      1.0  0.87020  0.48163  0.06625  1.0000
  O  Te17      1.0  0.94101  0.49787  0.39966  1.0000
  O  Te18      1.0  0.94932  0.44190  0.41195  1.0000
  H   H114      1.0  0.87742  0.43284  0.07684  1.0000
  Mg  Mg9       1.0  0.96669  0.47370  0.50664  1.0000
  C   C293      1.0  0.93069  0.22523  0.33919  1.0000
  C   C294      1.0  0.91464  0.24306  0.25321  1.0000
  C  Sn19      1.0  0.89319  0.23374  0.16111  1.0000
  C  Sn20      1.0  0.88775  0.20605  0.15526  1.0000
  C   C295      1.0  0.90391  0.18838  0.24181  1.0000
  C   C296      1.0  0.92533  0.19791  0.33353  1.0000
  H   H115      1.0  0.94725  0.23260  0.41024  1.0000
  O  Te19      1.0  0.87736  0.25183  0.07589  1.0000
  O  Te20      1.0  0.86643  0.19621  0.06422  1.0000
  H   H116      1.0  0.93774  0.18410  0.40018  1.0000
  Mg  Mg10      1.0  0.84946  0.22763  0.96896  1.0000
  C   C297      1.0  0.88582  0.70951  0.33680  1.0000
  C   C298      1.0  0.90312  0.69277  0.25171  1.0000
  C  Sn21      1.0  0.92386  0.70348  0.15646  1.0000
  C  Sn22      1.0  0.92730  0.73146  0.14649  1.0000
  C   C299      1.0  0.90990  0.74803  0.23218  1.0000
  C   C300      1.0  0.88920  0.73711  0.32709  1.0000
  H   H117      1.0  0.86981  0.70106  0.41031  1.0000
  O  Te21      1.0  0.94096  0.68647  0.07219  1.0000
  O  Te22      1.0  0.94788  0.74269  0.05224  1.0000
  H   H118      1.0  0.87582  0.75007  0.39304  1.0000
  Mg  Mg11      1.0  0.96487  0.71016  0.95981  1.0000
  C   C301      1.0  0.88342  0.97240  0.32662  1.0000
  C   C302      1.0  0.90228  0.99044  0.26458  1.0000
  C  Sn23      1.0  0.92381  0.98147  0.17110  1.0000
  C  Sn24      1.0  0.92644  0.95391  0.13930  1.0000
  C   C303      1.0  0.90745  0.93602  0.20181  1.0000
  C   C304      1.0  0.88599  0.94521  0.29526  1.0000
  H   H119      1.0  0.86681  0.97951  0.39884  1.0000
  O  Te23      1.0  0.94248  0.99977  0.11011  1.0000
  O  Te24      1.0  0.94775  0.94440  0.04618  1.0000
  H   H120      1.0  0.87138  0.93124  0.34318  1.0000
  Mg  Mg12      1.0  0.96690  0.97601  0.98980  1.0000
  C   C305      1.0  0.52598  0.11431  0.14699  1.0000
  C   C306      1.0  0.50790  0.09540  0.20804  1.0000
  C  Sn25      1.0  0.51690  0.07337  0.29667  1.0000
  C  Sn26      1.0  0.54453  0.07028  0.32455  1.0000
  C   C307      1.0  0.56246  0.08932  0.26306  1.0000
  C   C308      1.0  0.55323  0.11128  0.17449  1.0000
  H   H121      1.0  0.51884  0.13132  0.07853  1.0000
  O  Te25      1.0  0.49857  0.05466  0.35674  1.0000
  O  Te26      1.0  0.55407  0.04845  0.41279  1.0000
  H   H122      1.0  0.56723  0.12593  0.12733  1.0000
  Mg  Mg13      1.0  0.52128  0.02831  0.46977  1.0000
  C   C309      1.0  0.77273  0.11367  0.15504  1.0000
  C   C310      1.0  0.75532  0.09490  0.22474  1.0000
  C  Sn27      1.0  0.76515  0.07392  0.31949  1.0000
  C  Sn28      1.0  0.79294  0.07175  0.34474  1.0000
  C   C311      1.0  0.81019  0.09064  0.27458  1.0000
  C   C312      1.0  0.80014  0.11155  0.17994  1.0000
  H   H123      1.0  0.76495  0.12986  0.08189  1.0000
  O  Te27      1.0  0.74748  0.05534  0.38818  1.0000
  O  Te28      1.0  0.80331  0.05099  0.43895  1.0000
  H   H124      1.0  0.81362  0.12609  0.12608  1.0000
  Mg  Mg14      1.0  0.77121  0.03059  0.50694  1.0000
  C   C313      1.0  0.27218  0.06800  0.14916  1.0000
  C   C314      1.0  0.25500  0.08406  0.24000  1.0000
  C  Sn29      1.0  0.26505  0.10524  0.33158  1.0000
  C  Sn30      1.0  0.29282  0.11038  0.33193  1.0000
  C   C315      1.0  0.30984  0.09420  0.24055  1.0000
  C   C316      1.0  0.29957  0.07306  0.14939  1.0000
  H   H125      1.0  0.26423  0.05165  0.07855  1.0000
  O  Te29      1.0  0.24761  0.12109  0.42171  1.0000
  O  Te30      1.0  0.30340  0.13142  0.42233  1.0000
  H   H126      1.0  0.31288  0.06064  0.07897  1.0000
  Mg  Mg15      1.0  0.27157  0.14740  0.52557  1.0000
  C   C317      1.0  0.02476  0.11554  0.33533  1.0000
  C   C318      1.0  0.00768  0.09897  0.24709  1.0000
  C  Sn31      1.0  0.01782  0.07759  0.15805  1.0000
  C  Sn32      1.0  0.04558  0.07276  0.15761  1.0000
  C   C319      1.0  0.06250  0.08944  0.24638  1.0000
  C   C320      1.0  0.05214  0.11078  0.33502  1.0000
  H   H127      1.0  0.01674  0.13204  0.40398  1.0000
  O  Te31      1.0  0.00047  0.06124  0.07051  1.0000
  O  Te32      1.0  0.05624  0.05154  0.06972  1.0000
  H   H128      1.0  0.06537  0.12359  0.40341  1.0000
  Mg  Mg16      1.0  0.02339  0.03373  0.96948  1.0000
  C   C321      1.0  0.52574  0.56829  0.63370  1.0000
  C   C322      1.0  0.50850  0.58517  0.71818  1.0000
  C  Sn33      1.0  0.51855  0.60684  0.80526  1.0000
  C  Sn34      1.0  0.54637  0.61166  0.80755  1.0000
  C   C323      1.0  0.56345  0.59467  0.72254  1.0000
  C   C324      1.0  0.55318  0.57303  0.63584  1.0000
  H   H129      1.0  0.51780  0.55156  0.56654  1.0000
  O  Te33      1.0  0.50105  0.62350  0.88905  1.0000
  O  Te34      1.0  0.55694  0.63318  0.89355  1.0000
  H   H130      1.0  0.56653  0.55998  0.57035  1.0000
  Mg  Mg17      1.0  0.52502  0.65023  0.98870  1.0000
  C   C325      1.0  0.78836  0.61240  0.83874  1.0000
  C   C326      1.0  0.80613  0.59373  0.77603  1.0000
  C  Sn35      1.0  0.79684  0.57244  0.68247  1.0000
  C  Sn36      1.0  0.76922  0.56985  0.65128  1.0000
  C   C327      1.0  0.75160  0.58865  0.71447  1.0000
  C   C328      1.0  0.76112  0.60987  0.80798  1.0000
  H   H131      1.0  0.79572  0.62883  0.91102  1.0000
  O  Te35      1.0  0.81487  0.55395  0.62079  1.0000
  O  Te36      1.0  0.75939  0.54877  0.55810  1.0000
  H   H132      1.0  0.74735  0.62434  0.85643  1.0000
  Mg  Mg18      1.0  0.79183  0.52867  0.50069  1.0000
  C   C329      1.0  0.43243  0.45755  0.63813  1.0000
  C   C330      1.0  0.41634  0.43910  0.72201  1.0000
  C  Sn37      1.0  0.39456  0.44764  0.81477  1.0000
  C  Sn38      1.0  0.38881  0.47517  0.82343  1.0000
  C   C331      1.0  0.40501  0.49347  0.73897  1.0000
  C   C332      1.0  0.42677  0.48471  0.64656  1.0000
  H   H133      1.0  0.44925  0.45078  0.56655  1.0000
  O  Te37      1.0  0.37870  0.42894  0.89786  1.0000
  O  Te38      1.0  0.36715  0.48425  0.91519  1.0000
  H   H134      1.0  0.43920  0.49900  0.58154  1.0000
  Mg  Mg19      1.0  0.35256  0.45219  0.00682  1.0000
  C   C333      1.0  0.43395  0.22394  0.61777  1.0000
  C   C334      1.0  0.41487  0.24132  0.68022  1.0000
  C  Sn39      1.0  0.39319  0.23147  0.77082  1.0000
  C  Sn40      1.0  0.39062  0.20371  0.79927  1.0000
  C   C335      1.0  0.40982  0.18650  0.73636  1.0000
  C   C336      1.0  0.43144  0.19656  0.64582  1.0000
  H   H135      1.0  0.45068  0.23173  0.54779  1.0000
  O  Te39      1.0  0.37430  0.24911  0.83228  1.0000
  O  Te40      1.0  0.36915  0.19334  0.88946  1.0000
  H   H136      1.0  0.44622  0.18310  0.59757  1.0000
  Mg  Mg20      1.0  0.34858  0.22539  0.94779  1.0000
  C   C337      1.0  0.28825  0.56693  0.83063  1.0000
  C   C338      1.0  0.30635  0.58355  0.74778  1.0000
  C  Sn41      1.0  0.29729  0.60496  0.65369  1.0000
  C  Sn42      1.0  0.26960  0.60979  0.64262  1.0000
  C   C339      1.0  0.25166  0.59306  0.72607  1.0000
  C   C340      1.0  0.26093  0.57168  0.81983  1.0000
  H   H137      1.0  0.29542  0.55040  0.90326  1.0000
  O  Te41      1.0  0.31565  0.62136  0.57165  1.0000
  O  Te42      1.0  0.26001  0.63106  0.54949  1.0000
  H   H138      1.0  0.24692  0.55883  0.88405  1.0000
  Mg  Mg21      1.0  0.29285  0.64780  0.46009  1.0000
  C   C341      1.0  0.02677  0.61597  0.63591  1.0000
  C   C342      1.0  0.00899  0.59705  0.70015  1.0000
  C  Sn43      1.0  0.01839  0.57525  0.78938  1.0000
  C  Sn44      1.0  0.04612  0.57241  0.81460  1.0000
  C   C343      1.0  0.06374  0.59146  0.74993  1.0000
  C   C344      1.0  0.05412  0.61319  0.66078  1.0000
  H   H139      1.0  0.01932  0.63279  0.56700  1.0000
  O  Te43      1.0  0.00036  0.55652  0.85265  1.0000
  O  Te44      1.0  0.05605  0.55082  0.90337  1.0000
  H   H140      1.0  0.06788  0.62785  0.61115  1.0000
  Mg  Mg22      1.0  0.02356  0.53055  0.96516  1.0000
  C   C345      1.0  0.42919  0.72503  0.81479  1.0000
  C   C346      1.0  0.41239  0.74174  0.72581  1.0000
  C  Sn45      1.0  0.39085  0.73115  0.63985  1.0000
  C  Sn46      1.0  0.38609  0.70332  0.64332  1.0000
  C   C347      1.0  0.40301  0.68678  0.73280  1.0000
  C   C348      1.0  0.42451  0.69758  0.81832  1.0000
  H   H141      1.0  0.44582  0.73339  0.88104  1.0000
  O  Te45      1.0  0.37426  0.74813  0.55152  1.0000
  O  Te46      1.0  0.36470  0.69222  0.55856  1.0000
  H   H142      1.0  0.43751  0.68464  0.88729  1.0000
  Mg  Mg23      1.0  0.34771  0.72354  0.45576  1.0000
  C   C349      1.0  0.43111  0.95508  0.82654  1.0000
  C   C350      1.0  0.41157  0.93850  0.76036  1.0000
  C  Sn47      1.0  0.39056  0.94930  0.67096  1.0000
  C  Sn48      1.0  0.38915  0.97723  0.64755  1.0000
  C   C351      1.0  0.40882  0.99365  0.71415  1.0000
  C   C352      1.0  0.42974  0.98262  0.80345  1.0000
  H   H143      1.0  0.44731  0.94655  0.89555  1.0000
  O  Te47      1.0  0.37120  0.93245  0.60574  1.0000
  O  Te48      1.0  0.36838  0.98856  0.55866  1.0000
  H   H144      1.0  0.44488  0.99547  0.85458  1.0000
  Mg  Mg24      1.0  0.34677  0.95734  0.49387  1.0000
  C   C353      1.0  0.88619  0.45653  0.65442  1.0000
  C   C354      1.0  0.90529  0.43966  0.72149  1.0000
  C  Sn49      1.0  0.92675  0.45015  0.80867  1.0000
  C  Sn50      1.0  0.92906  0.47807  0.82892  1.0000
  C   C355      1.0  0.90983  0.49478  0.76145  1.0000
  C   C356      1.0  0.88844  0.48407  0.67439  1.0000
  H   H145      1.0  0.86964  0.44825  0.58713  1.0000
  O  Te49      1.0  0.94566  0.43301  0.87482  1.0000
  O  Te50      1.0  0.95029  0.48908  0.91554  1.0000
  H   H146      1.0  0.87364  0.49713  0.62257  1.0000
  Mg  Mg25      1.0  0.97100  0.45754  0.98275  1.0000
  C   C357      1.0  0.88708  0.22492  0.64462  1.0000
  C   C358      1.0  0.90351  0.24248  0.73014  1.0000
  C  Sn51      1.0  0.92524  0.23294  0.81835  1.0000
  C  Sn52      1.0  0.93058  0.20528  0.82073  1.0000
  C   C359      1.0  0.91403  0.18786  0.73468  1.0000
  C   C360      1.0  0.89233  0.19763  0.64685  1.0000
  H   H147      1.0  0.87030  0.23247  0.57659  1.0000
  O  Te51      1.0  0.94146  0.25076  0.90317  1.0000
  O  Te52      1.0  0.95217  0.19520  0.90785  1.0000
  H   H148      1.0  0.87962  0.18403  0.58056  1.0000
  Mg  Mg26      1.0  0.96963  0.22853  0.00414  1.0000
  C   C361      1.0  0.88483  0.70988  0.83446  1.0000
  C   C362      1.0  0.90118  0.69229  0.74878  1.0000
  C  Sn53      1.0  0.92223  0.70196  0.65191  1.0000
  C  Sn54      1.0  0.92696  0.72975  0.64090  1.0000
  C   C363      1.0  0.91050  0.74718  0.72718  1.0000
  C   C364      1.0  0.88949  0.73730  0.82371  1.0000
  H   H149      1.0  0.86858  0.70223  0.90922  1.0000
  O  Te53      1.0  0.93836  0.68411  0.56707  1.0000
  O  Te54      1.0  0.94786  0.73995  0.54503  1.0000
  H   H150      1.0  0.87685  0.75092  0.89012  1.0000
  Mg  Mg27      1.0  0.96434  0.70764  0.45239  1.0000
  C   C365      1.0  0.93149  0.95737  0.63058  1.0000
  C   C366      1.0  0.91461  0.93977  0.71547  1.0000
  C  Sn55      1.0  0.89352  0.94944  0.81002  1.0000
  C  Sn56      1.0  0.88929  0.97724  0.81949  1.0000
  C   C367      1.0  0.90628  0.99468  0.73400  1.0000
  C   C368      1.0  0.92733  0.98480  0.63979  1.0000
  H   H151      1.0  0.94777  0.94973  0.55761  1.0000
  O  Te55      1.0  0.87685  0.93158  0.89411  1.0000
  O  Te56      1.0  0.86836  0.98744  0.91304  1.0000
  H   H152      1.0  0.94039  0.99843  0.57399  1.0000
  Mg  Mg28      1.0  0.85218  0.95622  0.00547  1.0000
  C   C369      1.0  0.52943  0.11426  0.64215  1.0000
  C   C370      1.0  0.51197  0.09490  0.70470  1.0000
  C  Sn57      1.0  0.52167  0.07344  0.79583  1.0000
  C  Sn58      1.0  0.54937  0.07139  0.82469  1.0000
  C   C371      1.0  0.56667  0.09087  0.76167  1.0000
  C   C372      1.0  0.55675  0.11226  0.67061  1.0000
  H   H153      1.0  0.52175  0.13081  0.57176  1.0000
  O  Te57      1.0  0.50395  0.05427  0.85738  1.0000
  O  Te58      1.0  0.55960  0.05016  0.91540  1.0000
  H   H154      1.0  0.57027  0.12725  0.62228  1.0000
  Mg  Mg29      1.0  0.52748  0.02904  0.97367  1.0000
  C   C373      1.0  0.77665  0.06665  0.84063  1.0000
  C   C374      1.0  0.75917  0.08542  0.77584  1.0000
  C  Sn59      1.0  0.76898  0.10746  0.68850  1.0000
  C  Sn60      1.0  0.79682  0.11070  0.66575  1.0000
  C   C375      1.0  0.81414  0.09179  0.73096  1.0000
  C   C376      1.0  0.80411  0.06982  0.81820  1.0000
  H   H155      1.0  0.76889  0.04964  0.90806  1.0000
  O  Te59      1.0  0.75124  0.12603  0.62464  1.0000
  O  Te60      1.0  0.80716  0.13253  0.57891  1.0000
  H   H156      1.0  0.81764  0.05528  0.86826  1.0000
  Mg  Mg30      1.0  0.77496  0.15246  0.51540  1.0000
  C   C377      1.0  0.27734  0.11248  0.84321  1.0000
  C   C378      1.0  0.25944  0.09527  0.76641  1.0000
  C  Sn61      1.0  0.26874  0.07347  0.67784  1.0000
  C  Sn62      1.0  0.29649  0.06886  0.66620  1.0000
  C   C379      1.0  0.31423  0.08618  0.74357  1.0000
  C   C380      1.0  0.30471  0.10794  0.83184  1.0000
  H   H157      1.0  0.26997  0.12931  0.91159  1.0000
  O  Te61      1.0  0.25059  0.05649  0.60180  1.0000
  O  Te62      1.0  0.30633  0.04722  0.57850  1.0000
  H   H158      1.0  0.31857  0.12125  0.89138  1.0000
  Mg  Mg31      1.0  0.27369  0.02971  0.49624  1.0000
  C   C381      1.0  0.02933  0.06850  0.63338  1.0000
  C   C382      1.0  0.01172  0.08549  0.71393  1.0000
  C  Sn63      1.0  0.02140  0.10641  0.80911  1.0000
  C  Sn64      1.0  0.04924  0.11036  0.82365  1.0000
  C   C383      1.0  0.06670  0.09327  0.74249  1.0000
  C   C384      1.0  0.05680  0.07239  0.64760  1.0000
  H   H159      1.0  0.02168  0.05235  0.55989  1.0000
  O  Te63      1.0  0.00352  0.12319  0.88881  1.0000
  O  Te64      1.0  0.05945  0.13113  0.91794  1.0000
  H   H160      1.0  0.07044  0.05925  0.58517  1.0000
  Mg  Mg32      1.0  0.02824  0.14979  0.00318  1.0000
