data_image0
_chemical_formula_structural       C4NC4NC4NC4NC4H8BO2C5HCHO2B2O2C5HCHO2B2O2C5HCHO2B2O2C5HCHO2BC4NCNCHC2HCHCHC4NCNCHC2HCHCHC4NCNCHC2HCHCHC4NCNCHC2HCHCHBO2C5HCHO2B2O2C5HCHO2BC4NCNCHC2HCHCHC4NCNCHC2HCHCHBO2C5HCHO2B2O2C5HCHO2BH8C4NC4NC4NC4NC4H8BO2C5HCHO2B2O2C5HCHO2B2O2C5HCHO2B2O2C5HCHO2BC4NCNCHC2HCHCHC4NCNCHC2HCHCHC4NCNCHC2HCHCHC4NCNCHC2HCHCHBO2C5HCHO2B2O2C5HCHO2BC4NCNCHC2HCHCHC4NCNCHC2HCHCHBO2C5HCHO2B2O2C5HCHO2BH8SnCSn2CSnTe4Mg2SnCSn2CSnTe4Mg2SnCSn2CSnTe4Mg2SnCSn2CSnTe4Mg2SnCSn2CSnTe4Mg2SnCSn2CSnTe4Mg2SnCSn2CSnTe4Mg2SnCSn2CSnTe4Mg2SnCSn2CSnTe4Mg2SnCSn2CSnTe4Mg2SnCSn2CSnTe4Mg2SnCSn2CSnTe4Mg2SnCSn2CSnTe4Mg2SnCSn2CSnTe4Mg2SnCSn2CSnTe4Mg2SnCSn2CSnTe4Mg2SnCSn2CSnTe4Mg2SnCSn2CSnTe4Mg2SnCSn2CSnTe4Mg2SnCSn2CSnTe4Mg2SnCSn2CSnTe4Mg2SnCSn2CSnTe4Mg2SnCSn2CSnTe4Mg2SnCSn2CSnTe4Mg2SnCSn2CSnTe4Mg2SnCSn2CSnTe4Mg2SnCSn2CSnTe4Mg2SnCSn2CSnTe4Mg2SnCSn2CSnTe4Mg2SnCSn2CSnTe4Mg2SnCSn2CSnTe4Mg2SnCSn2CSnTe4Mg2
_chemical_formula_sum              "C320 N32 H112 B32 O64 Sn128 Te128 Mg64"
_cell_length_a       50.3849
_cell_length_b       50.3731
_cell_length_c       8.13416
_cell_angle_alpha    89.9947
_cell_angle_beta     90.2652
_cell_angle_gamma    90.2703

_symmetry_space_group_name_H-M    'P1'
_space_group_IT_number       1

loop_
  _space_group_symop_operation_xyz
  'x, y, z'

loop_
  _atom_site_type_symbol
  _atom_site_label
  _atom_site_symmetry_multiplicity
  _atom_site_fract_x
  _atom_site_fract_y
  _atom_site_fract_z
  _atom_site_occupancy
  C   C1        1.0  0.47427  0.64151  0.13631  1.0000
  C   C2        1.0  0.45502  0.66080  0.14053  1.0000
  C   C3        1.0  0.46250  0.61691  0.18689  1.0000
  C   C4        1.0  0.43074  0.64874  0.19371  1.0000
  N   N1        1.0  0.43608  0.62213  0.21560  1.0000
  C   C5        1.0  0.46149  0.56813  0.24078  1.0000
  C   C6        1.0  0.47432  0.54369  0.29395  1.0000
  C   C7        1.0  0.45508  0.52464  0.29623  1.0000
  C   C8        1.0  0.43065  0.53749  0.24304  1.0000
  N   N2        1.0  0.43479  0.56413  0.21700  1.0000
  C   C9        1.0  0.38195  0.53677  0.18579  1.0000
  C   C10       1.0  0.35753  0.52515  0.13026  1.0000
  C   C11       1.0  0.33825  0.54440  0.13385  1.0000
  C   C12       1.0  0.35014  0.56855  0.19145  1.0000
  N   N3        1.0  0.37668  0.56315  0.21644  1.0000
  C   C13       1.0  0.35137  0.61692  0.25675  1.0000
  C   C14       1.0  0.33886  0.64125  0.31392  1.0000
  C   C15       1.0  0.35805  0.66034  0.31285  1.0000
  C   C16       1.0  0.38224  0.64757  0.25610  1.0000
  N   N4        1.0  0.37797  0.62097  0.22942  1.0000
  C   C17       1.0  0.33751  0.59293  0.22472  1.0000
  C   C18       1.0  0.40642  0.52390  0.21345  1.0000
  C   C19       1.0  0.47518  0.59230  0.21181  1.0000
  C   C20       1.0  0.40631  0.66130  0.22541  1.0000
  H   H1        1.0  0.31761  0.54220  0.09952  1.0000
  H   H2        1.0  0.35517  0.50471  0.09234  1.0000
  H   H3        1.0  0.45720  0.50404  0.33119  1.0000
  H   H4        1.0  0.49506  0.54146  0.32556  1.0000
  H   H5        1.0  0.49481  0.64393  0.10118  1.0000
  H   H6        1.0  0.45730  0.68156  0.10965  1.0000
  H   H7        1.0  0.35612  0.68097  0.34718  1.0000
  H   H8        1.0  0.31835  0.64342  0.35001  1.0000
  B   B1        1.0  0.59136  0.59071  0.20272  1.0000
  O   O1        1.0  0.60719  0.57153  0.12521  1.0000
  O   O2        1.0  0.60717  0.60979  0.28336  1.0000
  C   C21       1.0  0.63316  0.57905  0.15932  1.0000
  C   C22       1.0  0.63311  0.60227  0.25439  1.0000
  C   C23       1.0  0.65632  0.56634  0.11076  1.0000
  C   C24       1.0  0.65614  0.61494  0.30890  1.0000
  C   C25       1.0  0.67937  0.57900  0.16548  1.0000
  H   H9        1.0  0.65641  0.54834  0.03738  1.0000
  C   C26       1.0  0.67930  0.60233  0.25935  1.0000
  H   H10       1.0  0.65605  0.63279  0.38358  1.0000
  O   O3        1.0  0.70535  0.57128  0.13945  1.0000
  O   O4        1.0  0.70520  0.60990  0.29278  1.0000
  B   B2        1.0  0.72116  0.59056  0.21806  1.0000
  B   B3        1.0  0.40613  0.40754  0.21151  1.0000
  O   O5        1.0  0.38618  0.39181  0.28328  1.0000
  O   O6        1.0  0.42589  0.39155  0.14134  1.0000
  C   C27       1.0  0.39374  0.36582  0.25588  1.0000
  C   C28       1.0  0.41781  0.36566  0.17025  1.0000
  C   C29       1.0  0.38034  0.34282  0.30323  1.0000
  C   C30       1.0  0.43059  0.34241  0.12329  1.0000
  C   C31       1.0  0.39313  0.31957  0.25629  1.0000
  H   H11       1.0  0.36190  0.34302  0.37163  1.0000
  C   C32       1.0  0.41719  0.31940  0.17041  1.0000
  H   H12       1.0  0.44899  0.34224  0.05447  1.0000
  O   O7        1.0  0.38491  0.29367  0.28349  1.0000
  O   O8        1.0  0.42460  0.29340  0.14131  1.0000
  B   B4        1.0  0.40449  0.27767  0.21152  1.0000
  B   B5        1.0  0.22109  0.59216  0.21054  1.0000
  O   O9        1.0  0.20529  0.61229  0.14155  1.0000
  O   O10       1.0  0.20518  0.57167  0.27539  1.0000
  C   C33       1.0  0.17933  0.60416  0.16665  1.0000
  C   C34       1.0  0.17926  0.57963  0.24794  1.0000
  C   C35       1.0  0.15622  0.61749  0.12185  1.0000
  C   C36       1.0  0.15612  0.56627  0.29251  1.0000
  C   C37       1.0  0.13307  0.60415  0.16656  1.0000
  H   H13       1.0  0.15626  0.63637  0.05767  1.0000
  C   C38       1.0  0.13303  0.57961  0.24786  1.0000
  H   H14       1.0  0.15608  0.54748  0.35783  1.0000
  O   O11       1.0  0.10714  0.61227  0.14139  1.0000
  O   O12       1.0  0.10707  0.57168  0.27556  1.0000
  B   B6        1.0  0.09127  0.59214  0.21039  1.0000
  B   B7        1.0  0.40538  0.77763  0.22131  1.0000
  O   O13       1.0  0.42455  0.79358  0.30036  1.0000
  O   O14       1.0  0.38627  0.79339  0.14177  1.0000
  C   C39       1.0  0.41699  0.81949  0.26921  1.0000
  C   C40       1.0  0.39381  0.81937  0.17332  1.0000
  C   C41       1.0  0.42962  0.84267  0.32172  1.0000
  C   C42       1.0  0.38117  0.84241  0.12074  1.0000
  C   C43       1.0  0.41698  0.86571  0.26903  1.0000
  H   H15       1.0  0.44738  0.84278  0.39783  1.0000
  C   C44       1.0  0.39379  0.86558  0.17318  1.0000
  H   H16       1.0  0.36347  0.84230  0.04422  1.0000
  O   O15       1.0  0.42454  0.89172  0.30013  1.0000
  O   O16       1.0  0.38625  0.89148  0.14150  1.0000
  B   B8        1.0  0.40535  0.90743  0.22099  1.0000
  C   C45       1.0  0.83750  0.59200  0.22471  1.0000
  C   C46       1.0  0.85086  0.61625  0.19307  1.0000
  C   C47       1.0  0.85057  0.56772  0.25424  1.0000
  C   C48       1.0  0.83776  0.64025  0.13531  1.0000
  N   N5        1.0  0.87748  0.62074  0.21817  1.0000
  C   C49       1.0  0.83908  0.54316  0.30768  1.0000
  N   N6        1.0  0.87702  0.56271  0.22556  1.0000
  C   C50       1.0  0.85670  0.65959  0.13212  1.0000
  H   H17       1.0  0.81707  0.64200  0.10125  1.0000
  C   C51       1.0  0.88126  0.64732  0.18856  1.0000
  C   C52       1.0  0.85847  0.52402  0.30371  1.0000
  H   H18       1.0  0.81861  0.54065  0.34417  1.0000
  C   C53       1.0  0.88260  0.53620  0.24880  1.0000
  H   H19       1.0  0.85433  0.68003  0.09455  1.0000
  C   C54       1.0  0.90528  0.66143  0.21650  1.0000
  H   H20       1.0  0.85636  0.50328  0.33546  1.0000
  C   C55       1.0  0.90712  0.52383  0.21643  1.0000
  C   C56       1.0  0.92995  0.64909  0.24691  1.0000
  C   C57       1.0  0.93103  0.53786  0.18706  1.0000
  C   C58       1.0  0.95434  0.66133  0.29816  1.0000
  N   N7        1.0  0.93549  0.62258  0.22322  1.0000
  C   C59       1.0  0.95544  0.52551  0.13042  1.0000
  N   N8        1.0  0.93491  0.56450  0.21515  1.0000
  C   C60       1.0  0.97383  0.64227  0.29859  1.0000
  H   H21       1.0  0.95658  0.68206  0.33021  1.0000
  C   C61       1.0  0.96212  0.61762  0.24782  1.0000
  C   C62       1.0  0.97436  0.54486  0.13155  1.0000
  H   H22       1.0  0.95770  0.50499  0.09438  1.0000
  C   C63       1.0  0.96144  0.56897  0.18865  1.0000
  H   H23       1.0  0.99451  0.64492  0.33073  1.0000
  C   C64       1.0  0.97497  0.59323  0.21860  1.0000
  H   H24       1.0  0.99496  0.54304  0.09665  1.0000
  C   C65       1.0  0.40252  0.16122  0.20610  1.0000
  C   C66       1.0  0.42703  0.14846  0.23492  1.0000
  C   C67       1.0  0.37823  0.14746  0.18005  1.0000
  C   C68       1.0  0.45154  0.16019  0.28851  1.0000
  N   N9        1.0  0.43213  0.12191  0.20978  1.0000
  C   C69       1.0  0.35368  0.16012  0.12701  1.0000
  N   N10       1.0  0.37410  0.12091  0.20990  1.0000
  C   C70       1.0  0.47065  0.14077  0.29042  1.0000
  H   H25       1.0  0.45408  0.18085  0.32104  1.0000
  C   C71       1.0  0.45861  0.11645  0.23700  1.0000
  C   C72       1.0  0.33443  0.14110  0.13329  1.0000
  H   H26       1.0  0.35151  0.18058  0.08924  1.0000
  C   C73       1.0  0.34732  0.11682  0.18856  1.0000
  H   H27       1.0  0.49126  0.14296  0.32589  1.0000
  C   C74       1.0  0.47104  0.09189  0.20723  1.0000
  H   H28       1.0  0.31361  0.14320  0.10317  1.0000
  C   C75       1.0  0.33362  0.09273  0.22112  1.0000
  C   C76       1.0  0.45701  0.06798  0.17661  1.0000
  C   C77       1.0  0.34630  0.06821  0.25026  1.0000
  C   C78       1.0  0.46935  0.04370  0.11761  1.0000
  N   N11       1.0  0.43055  0.06395  0.20770  1.0000
  C   C79       1.0  0.33449  0.04381  0.30440  1.0000
  N   N12       1.0  0.37275  0.06284  0.22342  1.0000
  C   C80       1.0  0.45023  0.02457  0.12210  1.0000
  H   H29       1.0  0.48966  0.04167  0.07726  1.0000
  C   C81       1.0  0.42627  0.03732  0.18238  1.0000
  C   C82       1.0  0.35373  0.02449  0.30407  1.0000
  H   H30       1.0  0.31390  0.04153  0.33861  1.0000
  C   C83       1.0  0.37802  0.03629  0.24919  1.0000
  H   H31       1.0  0.45204  0.00393  0.08772  1.0000
  C   C84       1.0  0.40237  0.02361  0.21723  1.0000
  H   H32       1.0  0.35143  0.00387  0.33869  1.0000
  B   B9        1.0  0.90646  0.40750  0.21486  1.0000
  O   O17       1.0  0.88745  0.39168  0.13346  1.0000
  O   O18       1.0  0.92480  0.39161  0.29994  1.0000
  C   C85       1.0  0.89418  0.36573  0.17020  1.0000
  C   C86       1.0  0.91696  0.36568  0.26976  1.0000
  C   C87       1.0  0.88114  0.34267  0.11980  1.0000
  C   C88       1.0  0.92898  0.34255  0.32628  1.0000
  C   C89       1.0  0.89307  0.31954  0.17724  1.0000
  H   H33       1.0  0.86364  0.34269  0.04154  1.0000
  C   C90       1.0  0.91610  0.31947  0.27452  1.0000
  H   H34       1.0  0.94646  0.34255  0.40471  1.0000
  O   O19       1.0  0.88502  0.29364  0.14865  1.0000
  O   O20       1.0  0.92320  0.29348  0.30824  1.0000
  B   B10       1.0  0.90396  0.27771  0.22834  1.0000
  B   B11       1.0  0.90406  0.77775  0.20462  1.0000
  O   O21       1.0  0.88359  0.79347  0.26862  1.0000
  O   O22       1.0  0.92453  0.79374  0.14085  1.0000
  C   C91       1.0  0.89167  0.81946  0.24445  1.0000
  C   C92       1.0  0.91644  0.81965  0.16676  1.0000
  C   C93       1.0  0.87820  0.84243  0.28909  1.0000
  C   C94       1.0  0.92988  0.84293  0.12529  1.0000
  C   C95       1.0  0.89171  0.86569  0.24840  1.0000
  H   H35       1.0  0.85914  0.84220  0.35055  1.0000
  C   C96       1.0  0.91646  0.86591  0.17052  1.0000
  H   H36       1.0  0.94888  0.84315  0.06295  1.0000
  O   O23       1.0  0.88365  0.89155  0.27559  1.0000
  O   O24       1.0  0.92461  0.89194  0.14830  1.0000
  B   B12       1.0  0.90416  0.90762  0.21310  1.0000
  C   C97       1.0  0.90204  0.16139  0.21307  1.0000
  C   C98       1.0  0.87785  0.14769  0.24138  1.0000
  C   C99       1.0  0.92645  0.14869  0.18246  1.0000
  C   C100      1.0  0.85354  0.16040  0.29666  1.0000
  N   N13       1.0  0.87366  0.12108  0.21396  1.0000
  C   C101      1.0  0.95080  0.16063  0.12949  1.0000
  N   N14       1.0  0.93180  0.12220  0.20792  1.0000
  C   C102      1.0  0.83435  0.14127  0.29525  1.0000
  H   H37       1.0  0.85150  0.18096  0.33278  1.0000
  C   C103      1.0  0.84706  0.11692  0.24011  1.0000
  C   C104      1.0  0.97013  0.14142  0.12974  1.0000
  H   H38       1.0  0.95308  0.18129  0.09635  1.0000
  C   C105      1.0  0.95835  0.11704  0.18361  1.0000
  H   H39       1.0  0.81371  0.14338  0.32877  1.0000
  C   C106      1.0  0.83341  0.09263  0.21245  1.0000
  H   H40       1.0  0.99072  0.14381  0.09579  1.0000
  C   C107      1.0  0.97109  0.09275  0.21751  1.0000
  C   C108      1.0  0.84619  0.06820  0.18236  1.0000
  C   C109      1.0  0.95732  0.06870  0.24798  1.0000
  C   C110      1.0  0.83435  0.04371  0.12980  1.0000
  N   N15       1.0  0.87281  0.06308  0.20607  1.0000
  C   C111      1.0  0.96983  0.04454  0.30821  1.0000
  N   N16       1.0  0.93084  0.06444  0.21648  1.0000
  C   C112      1.0  0.85377  0.02460  0.12731  1.0000
  H   H41       1.0  0.81362  0.04118  0.09841  1.0000
  C   C113      1.0  0.87820  0.03658  0.17984  1.0000
  C   C114      1.0  0.95080  0.02531  0.30474  1.0000
  H   H42       1.0  0.99022  0.04261  0.34840  1.0000
  C   C115      1.0  0.92668  0.03785  0.24370  1.0000
  H   H43       1.0  0.85148  0.00399  0.09253  1.0000
  C   C116      1.0  0.90270  0.02399  0.21108  1.0000
  H   H44       1.0  0.95278  0.00475  0.34049  1.0000
  B   B13       1.0  0.58722  0.08941  0.22019  1.0000
  O   O25       1.0  0.60305  0.07033  0.29988  1.0000
  O   O26       1.0  0.60309  0.10856  0.14174  1.0000
  C   C117      1.0  0.62903  0.07803  0.26935  1.0000
  C   C118      1.0  0.62899  0.10127  0.17463  1.0000
  C   C119      1.0  0.65221  0.06553  0.32146  1.0000
  C   C120      1.0  0.65202  0.11425  0.12423  1.0000
  C   C121      1.0  0.67527  0.07851  0.27089  1.0000
  H   H45       1.0  0.65234  0.04757  0.39513  1.0000
  C   C122      1.0  0.67518  0.10188  0.17747  1.0000
  H   H46       1.0  0.65190  0.13204  0.04904  1.0000
  O   O27       1.0  0.70127  0.07121  0.30184  1.0000
  O   O28       1.0  0.70107  0.10987  0.14913  1.0000
  B   B14       1.0  0.71705  0.09064  0.22543  1.0000
  B   B15       1.0  0.21718  0.09267  0.23640  1.0000
  O   O29       1.0  0.20113  0.07271  0.16631  1.0000
  O   O30       1.0  0.20146  0.11242  0.30918  1.0000
  C   C123      1.0  0.17526  0.08042  0.19605  1.0000
  C   C124      1.0  0.17544  0.10447  0.28276  1.0000
  C   C125      1.0  0.15205  0.06734  0.14875  1.0000
  C   C126      1.0  0.15241  0.11752  0.33093  1.0000
  C   C127      1.0  0.12904  0.08043  0.19625  1.0000
  H   H47       1.0  0.15191  0.04893  0.07939  1.0000
  C   C128      1.0  0.12919  0.10448  0.28289  1.0000
  H   H48       1.0  0.15257  0.13596  0.40003  1.0000
  O   O31       1.0  0.10307  0.07271  0.16634  1.0000
  O   O32       1.0  0.10325  0.11244  0.30904  1.0000
  B   B16       1.0  0.08732  0.09267  0.23602  1.0000
  H   H49       1.0  0.42207  0.60797  0.24017  1.0000
  H   H50       1.0  0.39069  0.57713  0.24509  1.0000
  H   H51       1.0  0.92156  0.60834  0.19810  1.0000
  H   H52       1.0  0.89086  0.57690  0.19815  1.0000
  H   H53       1.0  0.41797  0.10791  0.18432  1.0000
  H   H54       1.0  0.38680  0.07680  0.19583  1.0000
  H   H55       1.0  0.91788  0.10809  0.23506  1.0000
  H   H56       1.0  0.88678  0.07720  0.23222  1.0000
  C   C129      1.0  0.47171  0.64053  0.62985  1.0000
  C   C130      1.0  0.45262  0.65996  0.63445  1.0000
  C   C131      1.0  0.45994  0.61615  0.68409  1.0000
  C   C132      1.0  0.42839  0.64818  0.69068  1.0000
  N   N17       1.0  0.43361  0.62159  0.71443  1.0000
  C   C133      1.0  0.45906  0.56746  0.74233  1.0000
  C   C134      1.0  0.47201  0.54316  0.79680  1.0000
  C   C135      1.0  0.45302  0.52386  0.79596  1.0000
  C   C136      1.0  0.42854  0.53650  0.74170  1.0000
  N   N18       1.0  0.43243  0.56320  0.71656  1.0000
  C   C137      1.0  0.37986  0.53540  0.68626  1.0000
  C   C138      1.0  0.35524  0.52369  0.63478  1.0000
  C   C139      1.0  0.33605  0.54305  0.63837  1.0000
  C   C140      1.0  0.34821  0.56734  0.69186  1.0000
  N   N19       1.0  0.37478  0.56189  0.71471  1.0000
  C   C141      1.0  0.34950  0.61596  0.75393  1.0000
  C   C142      1.0  0.33677  0.64011  0.81199  1.0000
  C   C143      1.0  0.35580  0.65937  0.81263  1.0000
  C   C144      1.0  0.38006  0.64692  0.75442  1.0000
  N   N20       1.0  0.37601  0.62031  0.72627  1.0000
  C   C145      1.0  0.33574  0.59185  0.72336  1.0000
  C   C146      1.0  0.40442  0.52267  0.71252  1.0000
  C   C147      1.0  0.47266  0.59163  0.71170  1.0000
  C   C148      1.0  0.40402  0.66083  0.72326  1.0000
  H   H57       1.0  0.31528  0.54083  0.60714  1.0000
  H   H58       1.0  0.35272  0.50312  0.59966  1.0000
  H   H59       1.0  0.45528  0.50321  0.82928  1.0000
  H   H60       1.0  0.49265  0.54116  0.83133  1.0000
  H   H61       1.0  0.49214  0.64277  0.59207  1.0000
  H   H62       1.0  0.45498  0.68064  0.60210  1.0000
  H   H63       1.0  0.35367  0.67987  0.84949  1.0000
  H   H64       1.0  0.31622  0.64198  0.84765  1.0000
  B   B17       1.0  0.58889  0.59066  0.69952  1.0000
  O   O33       1.0  0.60491  0.57059  0.63309  1.0000
  O   O34       1.0  0.60453  0.61102  0.76850  1.0000
  C   C149      1.0  0.63082  0.57875  0.66321  1.0000
  C   C150      1.0  0.63054  0.60315  0.74596  1.0000
  C   C151      1.0  0.65414  0.56570  0.62067  1.0000
  C   C152      1.0  0.65346  0.61645  0.79664  1.0000
  C   C153      1.0  0.67709  0.57907  0.67041  1.0000
  H   H65       1.0  0.65445  0.54706  0.55385  1.0000
  C   C154      1.0  0.67674  0.60334  0.75450  1.0000
  H   H66       1.0  0.65317  0.63509  0.86352  1.0000
  O   O35       1.0  0.70319  0.57134  0.64808  1.0000
  O   O36       1.0  0.70255  0.61142  0.78588  1.0000
  B   B18       1.0  0.71875  0.59153  0.71964  1.0000
  B   B19       1.0  0.40601  0.40631  0.71157  1.0000
  O   O37       1.0  0.38777  0.39029  0.79754  1.0000
  O   O38       1.0  0.42444  0.39063  0.62606  1.0000
  C   C155      1.0  0.39505  0.36441  0.76276  1.0000
  C   C156      1.0  0.41731  0.36460  0.66011  1.0000
  C   C157      1.0  0.38284  0.34119  0.81752  1.0000
  C   C158      1.0  0.42951  0.34159  0.60366  1.0000
  C   C159      1.0  0.39497  0.31819  0.76053  1.0000
  H   H67       1.0  0.36575  0.34105  0.89819  1.0000
  C   C160      1.0  0.41736  0.31836  0.65898  1.0000
  H   H68       1.0  0.44650  0.34175  0.52217  1.0000
  O   O39       1.0  0.38753  0.29220  0.79197  1.0000
  O   O40       1.0  0.42456  0.29243  0.62467  1.0000
  B   B20       1.0  0.40591  0.27647  0.70709  1.0000
  B   B21       1.0  0.21951  0.59208  0.71414  1.0000
  O   O41       1.0  0.20383  0.61102  0.63252  1.0000
  O   O42       1.0  0.20353  0.57292  0.79199  1.0000
  C   C161      1.0  0.17782  0.60332  0.66063  1.0000
  C   C162      1.0  0.17762  0.58032  0.75758  1.0000
  C   C163      1.0  0.15484  0.61577  0.60504  1.0000
  C   C164      1.0  0.15438  0.56776  0.80866  1.0000
  C   C165      1.0  0.13161  0.60329  0.65669  1.0000
  H   H69       1.0  0.15503  0.63341  0.52847  1.0000
  C   C166      1.0  0.13138  0.58025  0.75333  1.0000
  H   H70       1.0  0.15422  0.55016  0.88565  1.0000
  O   O43       1.0  0.10573  0.61102  0.62488  1.0000
  O   O44       1.0  0.10534  0.57292  0.78421  1.0000
  B   B22       1.0  0.08969  0.59227  0.70594  1.0000
  B   B23       1.0  0.40392  0.77725  0.72018  1.0000
  O   O45       1.0  0.42336  0.79280  0.79960  1.0000
  O   O46       1.0  0.38497  0.79341  0.64203  1.0000
  C   C167      1.0  0.41631  0.81889  0.76878  1.0000
  C   C168      1.0  0.39295  0.81925  0.67463  1.0000
  C   C169      1.0  0.42949  0.84183  0.82042  1.0000
  C   C170      1.0  0.38050  0.84257  0.62511  1.0000
  C   C171      1.0  0.41714  0.86517  0.76994  1.0000
  H   H71       1.0  0.44746  0.84154  0.89458  1.0000
  C   C172      1.0  0.39358  0.86549  0.67771  1.0000
  H   H72       1.0  0.36252  0.84287  0.55114  1.0000
  O   O47       1.0  0.42523  0.89106  0.80051  1.0000
  O   O48       1.0  0.38623  0.89154  0.64915  1.0000
  B   B24       1.0  0.40599  0.90714  0.72487  1.0000
  C   C173      1.0  0.83514  0.59214  0.72663  1.0000
  C   C174      1.0  0.84853  0.61646  0.69597  1.0000
  C   C175      1.0  0.84833  0.56782  0.75345  1.0000
  C   C176      1.0  0.83547  0.64059  0.63953  1.0000
  N   N21       1.0  0.87519  0.62087  0.71981  1.0000
  C   C177      1.0  0.83711  0.54302  0.80496  1.0000
  N   N22       1.0  0.87489  0.56317  0.72528  1.0000
  C   C178      1.0  0.85448  0.65987  0.63548  1.0000
  H   H73       1.0  0.81474  0.64244  0.60675  1.0000
  C   C179      1.0  0.87906  0.64746  0.69042  1.0000
  C   C180      1.0  0.85678  0.52416  0.80146  1.0000
  H   H74       1.0  0.81661  0.54010  0.83972  1.0000
  C   C181      1.0  0.88081  0.53670  0.74797  1.0000
  H   H75       1.0  0.85216  0.68035  0.59798  1.0000
  C   C182      1.0  0.90312  0.66152  0.71708  1.0000
  H   H76       1.0  0.85493  0.50337  0.83267  1.0000
  C   C183      1.0  0.90548  0.52460  0.71597  1.0000
  C   C184      1.0  0.92788  0.64934  0.74695  1.0000
  C   C185      1.0  0.92929  0.53879  0.68545  1.0000
  C   C186      1.0  0.95216  0.66187  0.79764  1.0000
  N   N23       1.0  0.93368  0.62289  0.72402  1.0000
  C   C187      1.0  0.95358  0.52649  0.62629  1.0000
  N   N24       1.0  0.93325  0.56535  0.71498  1.0000
  C   C188      1.0  0.97183  0.64300  0.79931  1.0000
  H   H77       1.0  0.95413  0.68267  0.82804  1.0000
  C   C189      1.0  0.96037  0.61824  0.74885  1.0000
  C   C190      1.0  0.97256  0.54577  0.62789  1.0000
  H   H78       1.0  0.95572  0.50605  0.58823  1.0000
  C   C191      1.0  0.95978  0.56979  0.68756  1.0000
  H   H79       1.0  0.99246  0.64589  0.83222  1.0000
  C   C192      1.0  0.97336  0.59397  0.71887  1.0000
  H   H80       1.0  0.99310  0.54400  0.59148  1.0000
  C   C193      1.0  0.40611  0.16021  0.70515  1.0000
  C   C194      1.0  0.43076  0.14782  0.73467  1.0000
  C   C195      1.0  0.38196  0.14636  0.67805  1.0000
  C   C196      1.0  0.45509  0.16009  0.78673  1.0000
  N   N25       1.0  0.43639  0.12135  0.70999  1.0000
  C   C197      1.0  0.35752  0.15892  0.62212  1.0000
  N   N26       1.0  0.37783  0.11989  0.70925  1.0000
  C   C198      1.0  0.47465  0.14109  0.78684  1.0000
  H   H81       1.0  0.45720  0.18078  0.81994  1.0000
  C   C199      1.0  0.46301  0.11644  0.73544  1.0000
  C   C200      1.0  0.33831  0.13987  0.62715  1.0000
  H   H82       1.0  0.35543  0.17936  0.58374  1.0000
  C   C201      1.0  0.35111  0.11577  0.68584  1.0000
  H   H83       1.0  0.49531  0.14377  0.81976  1.0000
  C   C202      1.0  0.47580  0.09195  0.70803  1.0000
  H   H84       1.0  0.31761  0.14187  0.59393  1.0000
  C   C203      1.0  0.33750  0.09178  0.72106  1.0000
  C   C204      1.0  0.46197  0.06775  0.68104  1.0000
  C   C205      1.0  0.35051  0.06756  0.75305  1.0000
  C   C206      1.0  0.47448  0.04324  0.62707  1.0000
  N   N27       1.0  0.43535  0.06378  0.70809  1.0000
  C   C207      1.0  0.33917  0.04321  0.81094  1.0000
  N   N28       1.0  0.37694  0.06249  0.72343  1.0000
  C   C208      1.0  0.45520  0.02423  0.62759  1.0000
  H   H85       1.0  0.49508  0.04097  0.59318  1.0000
  C   C209      1.0  0.43102  0.03713  0.68333  1.0000
  C   C210      1.0  0.35861  0.02412  0.80862  1.0000
  H   H86       1.0  0.31881  0.04079  0.84963  1.0000
  C   C211      1.0  0.38262  0.03608  0.75004  1.0000
  H   H87       1.0  0.45715  0.00358  0.59333  1.0000
  C   C212      1.0  0.40699  0.02347  0.71671  1.0000
  H   H88       1.0  0.35667  0.00354  0.84407  1.0000
  B   B25       1.0  0.90831  0.40829  0.72007  1.0000
  O   O49       1.0  0.88874  0.39274  0.64208  1.0000
  O   O50       1.0  0.92718  0.39216  0.79930  1.0000
  C   C213      1.0  0.89549  0.36670  0.67562  1.0000
  C   C214      1.0  0.91888  0.36629  0.76953  1.0000
  C   C215      1.0  0.88194  0.34385  0.62659  1.0000
  C   C216      1.0  0.93101  0.34288  0.82099  1.0000
  C   C217      1.0  0.89395  0.32048  0.67903  1.0000
  H   H89       1.0  0.86401  0.34422  0.55205  1.0000
  C   C218      1.0  0.91755  0.32000  0.77093  1.0000
  H   H90       1.0  0.94906  0.34251  0.89435  1.0000
  O   O51       1.0  0.88550  0.29469  0.64970  1.0000
  O   O52       1.0  0.92456  0.29386  0.80061  1.0000
  B   B26       1.0  0.90467  0.27841  0.72463  1.0000
  B   B27       1.0  0.90333  0.77786  0.70944  1.0000
  O   O53       1.0  0.88501  0.79399  0.79205  1.0000
  O   O54       1.0  0.92204  0.79342  0.62479  1.0000
  C   C219      1.0  0.89267  0.81986  0.75719  1.0000
  C   C220      1.0  0.91517  0.81949  0.65663  1.0000
  C   C221      1.0  0.88063  0.84321  0.80936  1.0000
  C   C222      1.0  0.92796  0.84236  0.60125  1.0000
  C   C223      1.0  0.89332  0.86609  0.75312  1.0000
  H   H91       1.0  0.86323  0.84356  0.88740  1.0000
  C   C224      1.0  0.91613  0.86571  0.65522  1.0000
  H   H92       1.0  0.94536  0.84204  0.52324  1.0000
  O   O55       1.0  0.88635  0.89216  0.78418  1.0000
  O   O56       1.0  0.92428  0.89156  0.62445  1.0000
  B   B28       1.0  0.90568  0.90771  0.70482  1.0000
  C   C225      1.0  0.90639  0.16203  0.71419  1.0000
  C   C226      1.0  0.88241  0.14805  0.74364  1.0000
  C   C227      1.0  0.93097  0.14946  0.68611  1.0000
  C   C228      1.0  0.85816  0.16039  0.80302  1.0000
  N   N29       1.0  0.87845  0.12145  0.71543  1.0000
  C   C229      1.0  0.95559  0.16133  0.63732  1.0000
  N   N30       1.0  0.93612  0.12289  0.71169  1.0000
  C   C230      1.0  0.83924  0.14103  0.80444  1.0000
  H   H93       1.0  0.85604  0.18089  0.83976  1.0000
  C   C231      1.0  0.85196  0.11701  0.74448  1.0000
  C   C232      1.0  0.97484  0.14202  0.64058  1.0000
  H   H94       1.0  0.95811  0.18199  0.60442  1.0000
  C   C233      1.0  0.96273  0.11754  0.69050  1.0000
  H   H95       1.0  0.81884  0.14273  0.84373  1.0000
  C   C234      1.0  0.83831  0.09291  0.71255  1.0000
  H   H96       1.0  0.99564  0.14438  0.61152  1.0000
  C   C235      1.0  0.97521  0.09297  0.72062  1.0000
  C   C236      1.0  0.85099  0.06855  0.68027  1.0000
  C   C237      1.0  0.96148  0.06880  0.74956  1.0000
  C   C238      1.0  0.83909  0.04425  0.62498  1.0000
  N   N31       1.0  0.87744  0.06318  0.70744  1.0000
  C   C239      1.0  0.97424  0.04453  0.80652  1.0000
  N   N32       1.0  0.93496  0.06450  0.72056  1.0000
  C   C240      1.0  0.85829  0.02491  0.62570  1.0000
  H   H97       1.0  0.81849  0.04198  0.58979  1.0000
  C   C241      1.0  0.88264  0.03667  0.68124  1.0000
  C   C242      1.0  0.95522  0.02526  0.80465  1.0000
  H   H98       1.0  0.99479  0.04257  0.84316  1.0000
  C   C243      1.0  0.93097  0.03783  0.74640  1.0000
  H   H99       1.0  0.85594  0.00430  0.59141  1.0000
  C   C244      1.0  0.90703  0.02398  0.71342  1.0000
  H   H100      1.0  0.95733  0.00467  0.83987  1.0000
  B   B29       1.0  0.59231  0.09245  0.71483  1.0000
  O   O57       1.0  0.60808  0.07296  0.79112  1.0000
  O   O58       1.0  0.60827  0.11218  0.64188  1.0000
  C   C245      1.0  0.63407  0.08069  0.76225  1.0000
  C   C246      1.0  0.63417  0.10445  0.67252  1.0000
  C   C247      1.0  0.65712  0.06774  0.81191  1.0000
  C   C248      1.0  0.65736  0.11751  0.62542  1.0000
  C   C249      1.0  0.68032  0.08065  0.76355  1.0000
  H   H101      1.0  0.65698  0.04953  0.88321  1.0000
  C   C250      1.0  0.68040  0.10459  0.67572  1.0000
  H   H102      1.0  0.65749  0.13581  0.55503  1.0000
  O   O59       1.0  0.70626  0.07281  0.79224  1.0000
  O   O60       1.0  0.70637  0.11245  0.64852  1.0000
  B   B30       1.0  0.72215  0.09260  0.72010  1.0000
  B   B31       1.0  0.22117  0.09035  0.73202  1.0000
  O   O61       1.0  0.20535  0.07142  0.64963  1.0000
  O   O62       1.0  0.20526  0.10857  0.81677  1.0000
  C   C251      1.0  0.17937  0.07842  0.68302  1.0000
  C   C252      1.0  0.17934  0.10103  0.78338  1.0000
  C   C253      1.0  0.15628  0.06585  0.62816  1.0000
  C   C254      1.0  0.15622  0.11340  0.83610  1.0000
  C   C255      1.0  0.13314  0.07806  0.68207  1.0000
  H   H103      1.0  0.15637  0.04849  0.54916  1.0000
  C   C256      1.0  0.13316  0.10095  0.78003  1.0000
  H   H104      1.0  0.15611  0.13087  0.91427  1.0000
  O   O63       1.0  0.10715  0.07052  0.64906  1.0000
  O   O64       1.0  0.10724  0.10851  0.80921  1.0000
  B   B32       1.0  0.09137  0.08967  0.72719  1.0000
  H   H105      1.0  0.41948  0.60769  0.74136  1.0000
  H   H106      1.0  0.38910  0.57575  0.73985  1.0000
  H   H107      1.0  0.92004  0.60835  0.69901  1.0000
  H   H108      1.0  0.88845  0.57771  0.69937  1.0000
  H   H109      1.0  0.42262  0.10690  0.68587  1.0000
  H   H110      1.0  0.39053  0.07671  0.69279  1.0000
  H   H111      1.0  0.92188  0.10893  0.73536  1.0000
  H   H112      1.0  0.89158  0.07704  0.73593  1.0000
  C  Sn1       1.0  0.52399  0.56587  0.15460  1.0000
  C   C257      1.0  0.50749  0.58444  0.22975  1.0000
  C  Sn2       1.0  0.51779  0.60866  0.28497  1.0000
  C  Sn3       1.0  0.54515  0.61444  0.26455  1.0000
  C   C258      1.0  0.56164  0.59587  0.18941  1.0000
  C  Sn4       1.0  0.55136  0.57165  0.13418  1.0000
  O  Te1       1.0  0.51327  0.54178  0.10033  1.0000
  O  Te2       1.0  0.50090  0.62691  0.35978  1.0000
  O  Te3       1.0  0.55587  0.63855  0.31890  1.0000
  O  Te4       1.0  0.56823  0.55340  0.05938  1.0000
  Mg  Mg1       1.0  0.52486  0.65699  0.41322  1.0000
  Mg  Mg2       1.0  0.54429  0.52333  0.00583  1.0000
  C  Sn5       1.0  0.78795  0.57422  0.09357  1.0000
  C   C259      1.0  0.80489  0.59217  0.17313  1.0000
  C  Sn6       1.0  0.79522  0.60886  0.29601  1.0000
  C  Sn7       1.0  0.76806  0.60757  0.34038  1.0000
  C   C260      1.0  0.75113  0.58962  0.26088  1.0000
  C  Sn8       1.0  0.76078  0.57293  0.13795  1.0000
  O  Te5       1.0  0.79879  0.55772  0.97109  1.0000
  O  Te6       1.0  0.81254  0.62665  0.37375  1.0000
  O  Te7       1.0  0.75797  0.62408  0.46297  1.0000
  O  Te8       1.0  0.74348  0.55514  0.06025  1.0000
  Mg  Mg3       1.0  0.78939  0.64500  0.53313  1.0000
  Mg  Mg4       1.0  0.76736  0.53677  0.90093  1.0000
  C  Sn9       1.0  0.43237  0.45848  0.16428  1.0000
  C   C261      1.0  0.41413  0.44121  0.23746  1.0000
  C  Sn10      1.0  0.38944  0.45050  0.28893  1.0000
  C  Sn11      1.0  0.38284  0.47761  0.26672  1.0000
  C   C262      1.0  0.40108  0.49486  0.19356  1.0000
  C  Sn12      1.0  0.42577  0.48559  0.14207  1.0000
  O  Te9       1.0  0.45693  0.44876  0.11375  1.0000
  O  Te10      1.0  0.37154  0.43286  0.36182  1.0000
  O  Te11      1.0  0.35826  0.48732  0.31733  1.0000
  O  Te12      1.0  0.44367  0.50321  0.06919  1.0000
  Mg  Mg5       1.0  0.34057  0.45556  0.41021  1.0000
  Mg  Mg6       1.0  0.47464  0.48053  0.02068  1.0000
  C  Sn13      1.0  0.37712  0.21120  0.25319  1.0000
  C   C263      1.0  0.39540  0.19389  0.18234  1.0000
  C  Sn14      1.0  0.42023  0.20320  0.13211  1.0000
  C  Sn15      1.0  0.42694  0.23037  0.15323  1.0000
  C   C264      1.0  0.40867  0.24765  0.22407  1.0000
  C  Sn16      1.0  0.38383  0.23836  0.27431  1.0000
  O  Te13      1.0  0.35241  0.20146  0.30251  1.0000
  O  Te14      1.0  0.43818  0.18552  0.06153  1.0000
  O  Te15      1.0  0.45167  0.24010  0.10383  1.0000
  O  Te16      1.0  0.36589  0.25602  0.34487  1.0000
  Mg  Mg7       1.0  0.46937  0.20827  0.01407  1.0000
  Mg  Mg8       1.0  0.33470  0.23329  0.39245  1.0000
  C  Sn17      1.0  0.27205  0.61029  0.09255  1.0000
  C   C265      1.0  0.25472  0.59241  0.16858  1.0000
  C  Sn18      1.0  0.26400  0.57515  0.29015  1.0000
  C  Sn19      1.0  0.29115  0.57579  0.33678  1.0000
  C   C266      1.0  0.30846  0.59366  0.26079  1.0000
  C  Sn20      1.0  0.29920  0.61092  0.13918  1.0000
  O  Te17      1.0  0.26309  0.62735  0.97132  1.0000
  O  Te18      1.0  0.24630  0.55745  0.36436  1.0000
  O  Te19      1.0  0.30085  0.55869  0.45811  1.0000
  O  Te20      1.0  0.31688  0.62862  0.06501  1.0000
  Mg  Mg9       1.0  0.26900  0.53816  0.52327  1.0000
  Mg  Mg10      1.0  0.29495  0.64792  0.90616  1.0000
  C  Sn21      1.0  0.02488  0.57626  0.34866  1.0000
  C   C267      1.0  0.00781  0.59416  0.27102  1.0000
  C  Sn22      1.0  0.01717  0.61073  0.14616  1.0000
  C  Sn23      1.0  0.04414  0.60938  0.09780  1.0000
  C   C268      1.0  0.06118  0.59148  0.17539  1.0000
  C  Sn24      1.0  0.05185  0.57490  0.30030  1.0000
  O  Te21      1.0  0.01510  0.55988  0.47319  1.0000
  O  Te22      1.0  0.99973  0.62847  0.07039  1.0000
  O  Te23      1.0  0.05466  0.62577  0.97317  1.0000
  O  Te24      1.0  0.06926  0.55717  0.37602  1.0000
  Mg  Mg11      1.0  0.02319  0.64665  0.90698  1.0000
  Mg  Mg12      1.0  0.04657  0.53896  0.53939  1.0000
  C  Sn25      1.0  0.38922  0.71069  0.09192  1.0000
  C   C269      1.0  0.40688  0.69390  0.17392  1.0000
  C  Sn26      1.0  0.42324  0.70375  0.29911  1.0000
  C  Sn27      1.0  0.42192  0.73094  0.34336  1.0000
  C   C270      1.0  0.40426  0.74772  0.26141  1.0000
  C  Sn28      1.0  0.38790  0.73788  0.13617  1.0000
  O  Te25      1.0  0.37380  0.70040  0.96715  1.0000
  O  Te26      1.0  0.44074  0.68658  0.37928  1.0000
  O  Te27      1.0  0.43811  0.74121  0.46824  1.0000
  O  Te28      1.0  0.37040  0.75503  0.05605  1.0000
  Mg  Mg13      1.0  0.45870  0.70995  0.54122  1.0000
  Mg  Mg14      1.0  0.35317  0.73167  0.89415  1.0000
  C  Sn29      1.0  0.38690  0.95733  0.09103  1.0000
  C   C271      1.0  0.40513  0.94091  0.17108  1.0000
  C  Sn30      1.0  0.42176  0.95114  0.29373  1.0000
  C  Sn31      1.0  0.42013  0.97834  0.33735  1.0000
  C   C272      1.0  0.40191  0.99474  0.25734  1.0000
  C  Sn32      1.0  0.38527  0.98453  0.13465  1.0000
  O  Te29      1.0  0.37121  0.94667  0.96879  1.0000
  O  Te30      1.0  0.43983  0.93434  0.37198  1.0000
  O  Te31      1.0  0.43658  0.98899  0.45969  1.0000
  O  Te32      1.0  0.36248  0.00131  0.05644  1.0000
  Mg  Mg15      1.0  0.45797  0.95815  0.53075  1.0000
  Mg  Mg16      1.0  0.34980  0.97752  0.89772  1.0000
  C  Sn33      1.0  0.92409  0.45807  0.34284  1.0000
  C   C273      1.0  0.90653  0.44097  0.26127  1.0000
  C  Sn34      1.0  0.88981  0.45057  0.13762  1.0000
  C  Sn35      1.0  0.89068  0.47785  0.09451  1.0000
  C   C274      1.0  0.90823  0.49494  0.17604  1.0000
  C  Sn36      1.0  0.92495  0.48535  0.29973  1.0000
  O  Te33      1.0  0.94062  0.44803  0.46607  1.0000
  O  Te34      1.0  0.87242  0.43309  0.05786  1.0000
  O  Te35      1.0  0.87487  0.48786  0.97118  1.0000
  O  Te36      1.0  0.94234  0.50281  0.37945  1.0000
  Mg  Mg17      1.0  0.85459  0.45622  0.89817  1.0000
  Mg  Mg18      1.0  0.96094  0.47970  0.53909  1.0000
  C  Sn37      1.0  0.88598  0.21188  0.08860  1.0000
  C   C275      1.0  0.90326  0.19417  0.16613  1.0000
  C  Sn38      1.0  0.92016  0.20292  0.29171  1.0000
  C  Sn39      1.0  0.91978  0.22992  0.34090  1.0000
  C   C276      1.0  0.90251  0.24761  0.26341  1.0000
  C  Sn40      1.0  0.88560  0.23888  0.13779  1.0000
  O  Te37      1.0  0.87000  0.20268  0.96335  1.0000
  O  Te38      1.0  0.93726  0.18484  0.36736  1.0000
  O  Te39      1.0  0.93652  0.23909  0.46625  1.0000
  O  Te40      1.0  0.86850  0.25694  0.06218  1.0000
  Mg  Mg19      1.0  0.95626  0.20688  0.53196  1.0000
  Mg  Mg20      1.0  0.85023  0.23491  0.89764  1.0000
  C  Sn41      1.0  0.87852  0.71071  0.25611  1.0000
  C   C277      1.0  0.89743  0.69367  0.18916  1.0000
  C  Sn42      1.0  0.92198  0.70353  0.13769  1.0000
  C  Sn43      1.0  0.92777  0.73099  0.15355  1.0000
  C   C278      1.0  0.90888  0.74802  0.22049  1.0000
  C  Sn44      1.0  0.88431  0.73817  0.27197  1.0000
  O  Te41      1.0  0.85411  0.70042  0.30676  1.0000
  O  Te42      1.0  0.94055  0.68610  0.07109  1.0000
  O  Te43      1.0  0.95221  0.74127  0.10283  1.0000
  O  Te44      1.0  0.86575  0.75558  0.33856  1.0000
  Mg  Mg21      1.0  0.97101  0.70961  0.01986  1.0000
  Mg  Mg22      1.0  0.83529  0.73210  0.38990  1.0000
  C  Sn45      1.0  0.92988  0.95897  0.16901  1.0000
  C   C279      1.0  0.91181  0.94148  0.24182  1.0000
  C  Sn46      1.0  0.88686  0.95039  0.29093  1.0000
  C  Sn47      1.0  0.87981  0.97733  0.26667  1.0000
  C   C280      1.0  0.89787  0.99481  0.19388  1.0000
  C  Sn48      1.0  0.92283  0.98592  0.14476  1.0000
  O  Te45      1.0  0.95471  0.94963  0.12086  1.0000
  O  Te46      1.0  0.86914  0.93253  0.36350  1.0000
  O  Te47      1.0  0.85496  0.98666  0.31489  1.0000
  O  Te48      1.0  0.93583  0.00376  0.07220  1.0000
  Mg  Mg23      1.0  0.83766  0.95472  0.40828  1.0000
  Mg  Mg24      1.0  0.97202  0.98158  0.02730  1.0000
  C  Sn49      1.0  0.51989  0.07348  0.34061  1.0000
  C   C281      1.0  0.50348  0.09172  0.26058  1.0000
  C  Sn50      1.0  0.51376  0.10848  0.13949  1.0000
  C  Sn51      1.0  0.54100  0.10697  0.09742  1.0000
  C   C282      1.0  0.55738  0.08874  0.17740  1.0000
  C  Sn52      1.0  0.54713  0.07197  0.29854  1.0000
  O  Te49      1.0  0.50919  0.05692  0.46128  1.0000
  O  Te50      1.0  0.49697  0.12656  0.06123  1.0000
  O  Te51      1.0  0.55243  0.12354  0.97664  1.0000
  O  Te52      1.0  0.56390  0.05390  0.37675  1.0000
  Mg  Mg25      1.0  0.52159  0.14488  0.90491  1.0000
  Mg  Mg26      1.0  0.54004  0.03555  0.53302  1.0000
  C  Sn53      1.0  0.76842  0.07499  0.35324  1.0000
  C   C283      1.0  0.75063  0.09164  0.27119  1.0000
  C  Sn54      1.0  0.75941  0.10812  0.14431  1.0000
  C  Sn55      1.0  0.78653  0.10797  0.09840  1.0000
  C   C284      1.0  0.80430  0.09133  0.18041  1.0000
  C  Sn56      1.0  0.79554  0.07484  0.30734  1.0000
  O  Te53      1.0  0.75921  0.05867  0.47972  1.0000
  O  Te54      1.0  0.74125  0.12460  0.06412  1.0000
  O  Te55      1.0  0.79648  0.12430  0.97181  1.0000
  O  Te56      1.0  0.81368  0.05837  0.38748  1.0000
  Mg  Mg27      1.0  0.76412  0.14322  0.89951  1.0000
  Mg  Mg28      1.0  0.79158  0.03972  0.55204  1.0000
  C  Sn57      1.0  0.26770  0.06685  0.17878  1.0000
  C   C285      1.0  0.25095  0.08480  0.25761  1.0000
  C  Sn58      1.0  0.26069  0.10933  0.31143  1.0000
  C  Sn59      1.0  0.28772  0.11607  0.28584  1.0000
  C   C286      1.0  0.30445  0.09812  0.20703  1.0000
  C  Sn60      1.0  0.29473  0.07359  0.15319  1.0000
  O  Te57      1.0  0.25754  0.04244  0.12598  1.0000
  O  Te58      1.0  0.24357  0.12695  0.38999  1.0000
  O  Te59      1.0  0.29787  0.14050  0.33872  1.0000
  O  Te60      1.0  0.31183  0.05598  0.07465  1.0000
  Mg  Mg29      1.0  0.26673  0.15781  0.43952  1.0000
  Mg  Mg30      1.0  0.28868  0.02512  0.02499  1.0000
  C  Sn61      1.0  0.03707  0.07533  0.10140  1.0000
  C   C287      1.0  0.05401  0.09312  0.18239  1.0000
  C  Sn62      1.0  0.04412  0.11037  0.30149  1.0000
  C  Sn63      1.0  0.01671  0.10983  0.34054  1.0000
  C   C288      1.0  0.99979  0.09205  0.25959  1.0000
  C  Sn64      1.0  0.00967  0.07479  0.14045  1.0000
  O  Te61      1.0  0.04815  0.05825  0.98277  1.0000
  O  Te62      1.0  0.06144  0.12798  0.38076  1.0000
  O  Te63      1.0  0.00639  0.12692  0.45928  1.0000
  O  Te64      1.0  0.99236  0.05718  0.06122  1.0000
  Mg  Mg31      1.0  0.03792  0.14731  0.53346  1.0000
  Mg  Mg32      1.0  0.01661  0.03783  0.90858  1.0000
  C  Sn65      1.0  0.53755  0.57388  0.57452  1.0000
  C   C289      1.0  0.55533  0.59106  0.65364  1.0000
  C  Sn66      1.0  0.54654  0.60801  0.77772  1.0000
  C  Sn67      1.0  0.51942  0.60777  0.82376  1.0000
  C   C290      1.0  0.50167  0.59059  0.74468  1.0000
  C  Sn68      1.0  0.51043  0.57363  0.62056  1.0000
  O  Te65      1.0  0.54677  0.55710  0.45082  1.0000
  O  Te66      1.0  0.56468  0.62501  0.85500  1.0000
  O  Te67      1.0  0.51021  0.62456  0.94756  1.0000
  O  Te68      1.0  0.49231  0.55663  0.54332  1.0000
  Mg  Mg33      1.0  0.54181  0.64414  0.01648  1.0000
  Mg  Mg34      1.0  0.51442  0.53750  0.38189  1.0000
  C  Sn69      1.0  0.78531  0.57463  0.59720  1.0000
  C   C291      1.0  0.80250  0.59252  0.67524  1.0000
  C  Sn70      1.0  0.79312  0.60947  0.79759  1.0000
  C  Sn71      1.0  0.76598  0.60850  0.84297  1.0000
  C   C292      1.0  0.74881  0.59062  0.76499  1.0000
  C  Sn72      1.0  0.75818  0.57366  0.64259  1.0000
  O  Te69      1.0  0.79513  0.55787  0.47523  1.0000
  O  Te70      1.0  0.81068  0.62719  0.87380  1.0000
  O  Te71      1.0  0.75618  0.62528  0.96506  1.0000
  O  Te72      1.0  0.74063  0.55595  0.56642  1.0000
  Mg  Mg35      1.0  0.78711  0.64599  0.03304  1.0000
  Mg  Mg36      1.0  0.76343  0.53714  0.40724  1.0000
  C  Sn73      1.0  0.38855  0.47254  0.84288  1.0000
  C   C293      1.0  0.40561  0.49008  0.76178  1.0000
  C  Sn74      1.0  0.42207  0.48100  0.63622  1.0000
  C  Sn75      1.0  0.42145  0.45382  0.59069  1.0000
  C   C294      1.0  0.40439  0.43630  0.67174  1.0000
  C  Sn76      1.0  0.38793  0.44536  0.79735  1.0000
  O  Te73      1.0  0.37227  0.48205  0.96803  1.0000
  O  Te74      1.0  0.43897  0.49891  0.55697  1.0000
  O  Te75      1.0  0.43775  0.44432  0.46542  1.0000
  O  Te76      1.0  0.37104  0.42747  0.87655  1.0000
  Mg  Mg37      1.0  0.45736  0.47642  0.39403  1.0000
  Mg  Mg38      1.0  0.35188  0.44995  0.03943  1.0000
  C  Sn77      1.0  0.42214  0.22604  0.57205  1.0000
  C   C295      1.0  0.40499  0.24304  0.65551  1.0000
  C  Sn78      1.0  0.38877  0.23332  0.78091  1.0000
  C  Sn79      1.0  0.38973  0.20605  0.82385  1.0000
  C   C296      1.0  0.40687  0.18907  0.74043  1.0000
  C  Sn80      1.0  0.42309  0.19877  0.61499  1.0000
  O  Te77      1.0  0.43817  0.23619  0.44710  1.0000
  O  Te78      1.0  0.37178  0.25070  0.86255  1.0000
  O  Te79      1.0  0.37367  0.19592  0.94891  1.0000
  O  Te80      1.0  0.44008  0.18142  0.53339  1.0000
  Mg  Mg39      1.0  0.35307  0.22745  0.02414  1.0000
  Mg  Mg40      1.0  0.45806  0.20465  0.37185  1.0000
  C  Sn81      1.0  0.26973  0.57562  0.85152  1.0000
  C   C297      1.0  0.25286  0.59286  0.76683  1.0000
  C  Sn82      1.0  0.26275  0.60923  0.64250  1.0000
  C  Sn83      1.0  0.29008  0.60833  0.60189  1.0000
  C   C298      1.0  0.30694  0.59109  0.68653  1.0000
  C  Sn84      1.0  0.29706  0.57473  0.81091  1.0000
  O  Te81      1.0  0.25941  0.55944  0.97537  1.0000
  O  Te82      1.0  0.24550  0.62630  0.55959  1.0000
  O  Te83      1.0  0.30039  0.62453  0.47793  1.0000
  O  Te84      1.0  0.31430  0.55765  0.89377  1.0000
  Mg  Mg41      1.0  0.26898  0.64446  0.40026  1.0000
  Mg  Mg42      1.0  0.29009  0.53949  0.05306  1.0000
  C  Sn85      1.0  0.02331  0.57659  0.84540  1.0000
  C   C299      1.0  0.00623  0.59468  0.76957  1.0000
  C  Sn86      1.0  0.01554  0.61148  0.64571  1.0000
  C  Sn87      1.0  0.04247  0.61017  0.59655  1.0000
  C   C300      1.0  0.05953  0.59209  0.67234  1.0000
  C  Sn88      1.0  0.05025  0.57528  0.79624  1.0000
  O  Te85      1.0  0.01358  0.55999  0.96894  1.0000
  O  Te86      1.0  0.99809  0.62940  0.57175  1.0000
  O  Te87      1.0  0.05219  0.62679  0.47290  1.0000
  O  Te88      1.0  0.06768  0.55737  0.87016  1.0000
  Mg  Mg43      1.0  0.02072  0.64786  0.40911  1.0000
  Mg  Mg44      1.0  0.04431  0.53890  0.03274  1.0000
  C  Sn89      1.0  0.38636  0.71036  0.59413  1.0000
  C   C301      1.0  0.40435  0.69342  0.67198  1.0000
  C  Sn90      1.0  0.42160  0.70314  0.79294  1.0000
  C  Sn91      1.0  0.42085  0.73036  0.83708  1.0000
  C   C302      1.0  0.40286  0.74729  0.75928  1.0000
  C  Sn92      1.0  0.38561  0.73759  0.63828  1.0000
  O  Te89      1.0  0.36930  0.70021  0.47356  1.0000
  O  Te90      1.0  0.43942  0.68582  0.86900  1.0000
  O  Te91      1.0  0.43793  0.74050  0.95776  1.0000
  O  Te92      1.0  0.36780  0.75489  0.56226  1.0000
  Mg  Mg45      1.0  0.45790  0.70907  0.02609  1.0000
  Mg  Mg46      1.0  0.34855  0.73167  0.40522  1.0000
  C  Sn93      1.0  0.38925  0.95753  0.59279  1.0000
  C   C303      1.0  0.40679  0.94049  0.67372  1.0000
  C  Sn94      1.0  0.42405  0.95027  0.79445  1.0000
  C  Sn95      1.0  0.42376  0.97764  0.83522  1.0000
  C   C304      1.0  0.40622  0.99466  0.75433  1.0000
  C  Sn96      1.0  0.38896  0.98490  0.63356  1.0000
  O  Te93      1.0  0.37216  0.94733  0.47250  1.0000
  O  Te94      1.0  0.44142  0.93285  0.87363  1.0000
  O  Te95      1.0  0.44086  0.98783  0.95561  1.0000
  O  Te96      1.0  0.36688  0.00231  0.55443  1.0000
  Mg  Mg47      1.0  0.46012  0.95623  0.02895  1.0000
  Mg  Mg48      1.0  0.35213  0.97896  0.39915  1.0000
  C  Sn97      1.0  0.92455  0.45966  0.84691  1.0000
  C   C305      1.0  0.90763  0.44180  0.76641  1.0000
  C  Sn98      1.0  0.89054  0.45059  0.64240  1.0000
  C  Sn99      1.0  0.89036  0.47781  0.59782  1.0000
  C   C306      1.0  0.90728  0.49566  0.67827  1.0000
  C  Sn100     1.0  0.92438  0.48688  0.80233  1.0000
  O  Te97      1.0  0.94148  0.45043  0.97052  1.0000
  O  Te98      1.0  0.87380  0.43236  0.56373  1.0000
  O  Te99      1.0  0.87342  0.48704  0.47410  1.0000
  O  Te100     1.0  0.94111  0.50510  0.88095  1.0000
  Mg  Mg49      1.0  0.85433  0.45455  0.40297  1.0000
  Mg  Mg50      1.0  0.95985  0.48294  0.04166  1.0000
  C  Sn101     1.0  0.93116  0.22817  0.76855  1.0000
  C   C307      1.0  0.91251  0.24505  0.69635  1.0000
  C  Sn102     1.0  0.88807  0.23510  0.64220  1.0000
  C  Sn103     1.0  0.88213  0.20772  0.66069  1.0000
  C   C308      1.0  0.90077  0.19085  0.73288  1.0000
  C  Sn104     1.0  0.92522  0.20078  0.78704  1.0000
  O  Te101     1.0  0.95547  0.23854  0.82181  1.0000
  O  Te102     1.0  0.86975  0.25236  0.57034  1.0000
  O  Te103     1.0  0.85779  0.19735  0.60735  1.0000
  O  Te104     1.0  0.94353  0.18354  0.85889  1.0000
  Mg  Mg51      1.0  0.83934  0.22879  0.51725  1.0000
  Mg  Mg52      1.0  0.97394  0.20709  0.91209  1.0000
  C  Sn105     1.0  0.92856  0.71117  0.65924  1.0000
  C   C309      1.0  0.91043  0.69410  0.73522  1.0000
  C  Sn106     1.0  0.88613  0.70370  0.79124  1.0000
  C  Sn107     1.0  0.87981  0.73091  0.77079  1.0000
  C   C310      1.0  0.89793  0.74795  0.69483  1.0000
  C  Sn108     1.0  0.92224  0.73838  0.63879  1.0000
  O  Te105     1.0  0.95274  0.70114  0.60418  1.0000
  O  Te106     1.0  0.86832  0.68626  0.86687  1.0000
  O  Te107     1.0  0.85561  0.74093  0.82594  1.0000
  O  Te108     1.0  0.94004  0.75580  0.56318  1.0000
  Mg  Mg53      1.0  0.83791  0.70935  0.92120  1.0000
  Mg  Mg54      1.0  0.97045  0.73272  0.50873  1.0000
  C  Sn109     1.0  0.93268  0.95830  0.66273  1.0000
  C   C311      1.0  0.91414  0.94111  0.73371  1.0000
  C  Sn110     1.0  0.88963  0.95066  0.78655  1.0000
  C  Sn111     1.0  0.88351  0.97795  0.76798  1.0000
  C   C312      1.0  0.90204  0.99512  0.69702  1.0000
  C  Sn112     1.0  0.92656  0.98560  0.64416  1.0000
  O  Te109     1.0  0.95705  0.94833  0.61077  1.0000
  O  Te110     1.0  0.87142  0.93309  0.85720  1.0000
  O  Te111     1.0  0.85911  0.98792  0.82002  1.0000
  O  Te112     1.0  0.94005  0.00315  0.57353  1.0000
  Mg  Mg55      1.0  0.84086  0.95616  0.90878  1.0000
  Mg  Mg56      1.0  0.97532  0.98009  0.52183  1.0000
  C  Sn113     1.0  0.54144  0.11811  0.65949  1.0000
  C   C313      1.0  0.55856  0.10027  0.73714  1.0000
  C  Sn114     1.0  0.54916  0.07571  0.79206  1.0000
  C  Sn115     1.0  0.52207  0.06882  0.76879  1.0000
  C   C314      1.0  0.50496  0.08665  0.69116  1.0000
  C  Sn116     1.0  0.51435  0.11122  0.63622  1.0000
  O  Te113     1.0  0.55127  0.14255  0.60557  1.0000
  O  Te114     1.0  0.56666  0.05821  0.86940  1.0000
  O  Te115     1.0  0.51225  0.04435  0.82279  1.0000
  O  Te116     1.0  0.49687  0.12871  0.55890  1.0000
  Mg  Mg57      1.0  0.54383  0.02724  0.92122  1.0000
  Mg  Mg58      1.0  0.51967  0.15967  0.50696  1.0000
  C  Sn117     1.0  0.77303  0.07540  0.84468  1.0000
  C   C315      1.0  0.75571  0.09299  0.76644  1.0000
  C  Sn118     1.0  0.76497  0.11004  0.64380  1.0000
  C  Sn119     1.0  0.79211  0.10949  0.59833  1.0000
  C   C316      1.0  0.80941  0.09191  0.67652  1.0000
  C  Sn120     1.0  0.80016  0.07485  0.79920  1.0000
  O  Te117     1.0  0.76333  0.05853  0.96695  1.0000
  O  Te118     1.0  0.74729  0.12745  0.56739  1.0000
  O  Te119     1.0  0.80179  0.12638  0.47595  1.0000
  O  Te120     1.0  0.81783  0.05744  0.87557  1.0000
  Mg  Mg59      1.0  0.76997  0.14655  0.40778  1.0000
  Mg  Mg60      1.0  0.79442  0.03834  0.03512  1.0000
  C  Sn121     1.0  0.28745  0.07405  0.59729  1.0000
  C   C317      1.0  0.30478  0.09207  0.67292  1.0000
  C  Sn122     1.0  0.29563  0.10921  0.79490  1.0000
  C  Sn123     1.0  0.26859  0.10832  0.84235  1.0000
  C   C318      1.0  0.25127  0.09030  0.76676  1.0000
  C  Sn124     1.0  0.26041  0.07315  0.64475  1.0000
  O  Te121     1.0  0.29703  0.05709  0.47565  1.0000
  O  Te122     1.0  0.31333  0.12707  0.86870  1.0000
  O  Te123     1.0  0.25901  0.12530  0.96410  1.0000
  O  Te124     1.0  0.24272  0.05531  0.57099  1.0000
  Mg  Mg61      1.0  0.29007  0.14613  0.02843  1.0000
  Mg  Mg62      1.0  0.26521  0.03624  0.41131  1.0000
  C  Sn125     1.0  0.02576  0.11761  0.77296  1.0000
  C   C319      1.0  0.00794  0.09993  0.69866  1.0000
  C  Sn126     1.0  0.01655  0.07517  0.64364  1.0000
  C  Sn127     1.0  0.04355  0.06792  0.66338  1.0000
  C   C320      1.0  0.06136  0.08560  0.73766  1.0000
  C  Sn128     1.0  0.05276  0.11037  0.79270  1.0000
  O  Te125     1.0  0.01671  0.14226  0.82706  1.0000
  O  Te126     1.0  0.99836  0.05783  0.56968  1.0000
  O  Te127     1.0  0.05259  0.04325  0.60920  1.0000
  O  Te128     1.0  0.07093  0.12770  0.86664  1.0000
  Mg  Mg63      1.0  0.02025  0.02648  0.51616  1.0000
  Mg  Mg64      1.0  0.04906  0.15904  0.92029  1.0000
