data_image0
_chemical_formula_structural       BCB2CBCB2C3HOC2HOC2HOC2HOC2HOC2HOC2HOC2HOC2HOC2HOC2HOC2HOCHCHCHCHCHC3HC2HC3HC2HC2HC3HC2HC2B2CB3CBC2HOC2HOC2HOC2HOC2HOC2HOC2HOC2HOC2HOC2HOC2HOC2HOCHCHCHCHC2HC4HC5HC4HCSnCSn2CSnTe4Mg2SnCSn2CSnTe4Mg2SnCSn2CSnTe4Mg2
_chemical_formula_sum              "B12 C104 H44 O24 Sn12 Te12 Mg6"
_cell_length_a       30.7568
_cell_length_b       30.592
_cell_length_c       14.6906
_cell_angle_alpha    89.7626
_cell_angle_beta     89.9051
_cell_angle_gamma    120.587

_symmetry_space_group_name_H-M    'P1'
_space_group_IT_number       1

loop_
  _space_group_symop_operation_xyz
  'x, y, z'

loop_
  _atom_site_type_symbol
  _atom_site_label
  _atom_site_symmetry_multiplicity
  _atom_site_fract_x
  _atom_site_fract_y
  _atom_site_fract_z
  _atom_site_occupancy
  B   B1        1.0  0.56138  0.45167  0.99058  1.0000
  C   C1        1.0  0.53380  0.48171  0.99041  1.0000
  B   B2        1.0  0.55462  0.11138  0.00072  1.0000
  B   B3        1.0  0.88692  0.44424  0.00107  1.0000
  C   C2        1.0  0.94486  0.47192  0.00226  1.0000
  B   B4        1.0  0.45135  0.56310  0.99449  1.0000
  C   C3        1.0  0.48117  0.53534  0.99256  1.0000
  B   B5        1.0  0.44656  0.88698  0.00803  1.0000
  B   B6        1.0  0.10974  0.55289  0.00464  1.0000
  C   C4        1.0  0.05174  0.52437  0.00445  1.0000
  C   C5        1.0  0.27857  0.63587  0.05092  1.0000
  C   C6        1.0  0.18918  0.59224  0.95626  1.0000
  H   H1        1.0  0.23304  0.61534  0.83140  1.0000
  O   O1        1.0  0.13982  0.56802  0.92563  1.0000
  C   C7        1.0  0.35941  0.63789  0.04881  1.0000
  C   C8        1.0  0.40894  0.60007  0.95005  1.0000
  H   H2        1.0  0.38546  0.62179  0.82722  1.0000
  O   O2        1.0  0.43563  0.57826  0.91705  1.0000
  C   C9        1.0  0.35849  0.71683  0.05214  1.0000
  C   C10       1.0  0.40576  0.80759  0.95900  1.0000
  H   H3        1.0  0.38416  0.76495  0.83337  1.0000
  O   O3        1.0  0.43149  0.85741  0.92857  1.0000
  C   C11       1.0  0.71782  0.36166  0.04558  1.0000
  C   C12       1.0  0.80791  0.40554  0.95193  1.0000
  H   H4        1.0  0.76505  0.38343  0.82647  1.0000
  O   O4        1.0  0.85746  0.42910  0.92184  1.0000
  C   C13       1.0  0.63890  0.36207  0.04276  1.0000
  C   C14       1.0  0.59860  0.40965  0.94491  1.0000
  H   H5        1.0  0.61993  0.38639  0.82166  1.0000
  O   O5        1.0  0.57607  0.43594  0.91261  1.0000
  C   C15       1.0  0.63739  0.28131  0.04532  1.0000
  C   C16       1.0  0.59461  0.19124  0.95153  1.0000
  H   H6        1.0  0.61838  0.23521  0.82626  1.0000
  O   O6        1.0  0.57109  0.14151  0.92153  1.0000
  C   C17       1.0  0.63855  0.28111  0.94936  1.0000
  C   C18       1.0  0.59279  0.19146  0.04651  1.0000
  H   H7        1.0  0.61252  0.23596  0.17010  1.0000
  O   O7        1.0  0.56777  0.14194  0.07861  1.0000
  C   C19       1.0  0.63963  0.36190  0.94680  1.0000
  C   C20       1.0  0.59785  0.40961  0.03992  1.0000
  H   H8        1.0  0.61763  0.38671  0.16552  1.0000
  O   O8        1.0  0.57472  0.43561  0.06999  1.0000
  C   C21       1.0  0.71865  0.36140  0.94959  1.0000
  C   C22       1.0  0.80713  0.40620  0.04695  1.0000
  H   H9        1.0  0.76206  0.38528  0.17047  1.0000
  O   O9        1.0  0.85619  0.43046  0.07913  1.0000
  C   C23       1.0  0.35874  0.71788  0.95617  1.0000
  C   C24       1.0  0.40526  0.80666  0.05405  1.0000
  H   H10       1.0  0.38192  0.76082  0.17736  1.0000
  O   O10       1.0  0.43071  0.85601  0.08631  1.0000
  C   C25       1.0  0.35953  0.63911  0.95287  1.0000
  C   C26       1.0  0.40860  0.59856  0.04505  1.0000
  H   H11       1.0  0.38471  0.61675  0.17114  1.0000
  O   O11       1.0  0.43516  0.57578  0.07432  1.0000
  C   C27       1.0  0.27862  0.63690  0.95498  1.0000
  C   C28       1.0  0.18919  0.59162  0.05128  1.0000
  H   H12       1.0  0.23294  0.61231  0.17525  1.0000
  O   O12       1.0  0.13988  0.56734  0.08299  1.0000
  C   C29       1.0  0.33178  0.66274  0.09061  1.0000
  H   H13       1.0  0.33191  0.66569  0.84016  1.0000
  C   C30       1.0  0.66418  0.33491  0.08456  1.0000
  H   H14       1.0  0.66646  0.33457  0.83397  1.0000
  C   C31       1.0  0.66571  0.33463  0.90855  1.0000
  H   H15       1.0  0.66342  0.33484  0.15916  1.0000
  C   C32       1.0  0.33191  0.66478  0.91470  1.0000
  H   H16       1.0  0.33170  0.66171  0.16515  1.0000
  C   C33       1.0  0.49355  0.52017  0.07455  1.0000
  H   H17       1.0  0.48253  0.52926  0.13902  1.0000
  C   C34       1.0  0.38413  0.61753  0.09724  1.0000
  C   C35       1.0  0.38182  0.76135  0.10341  1.0000
  C   C36       1.0  0.02399  0.51456  0.08606  1.0000
  H   H18       1.0  0.04405  0.52769  0.15035  1.0000
  C   C37       1.0  0.23365  0.61308  0.10132  1.0000
  C   C38       1.0  0.51941  0.49379  0.07344  1.0000
  H   H19       1.0  0.52865  0.48199  0.13696  1.0000
  C   C39       1.0  0.61803  0.38609  0.09160  1.0000
  C   C40       1.0  0.61409  0.23628  0.09618  1.0000
  C   C41       1.0  0.97142  0.48872  0.08495  1.0000
  H   H20       1.0  0.95026  0.48144  0.14825  1.0000
  C   C42       1.0  0.76225  0.38443  0.09655  1.0000
  C   C43       1.0  0.52182  0.49729  0.90845  1.0000
  H   H21       1.0  0.53300  0.48838  0.84399  1.0000
  C   C44       1.0  0.61940  0.38591  0.89557  1.0000
  C   C45       1.0  0.97258  0.48141  0.92070  1.0000
  H   H22       1.0  0.95250  0.46808  0.85652  1.0000
  C   C46       1.0  0.76392  0.38349  0.90042  1.0000
  C   C47       1.0  0.61732  0.23584  0.90018  1.0000
  C   C48       1.0  0.49595  0.52369  0.90949  1.0000
  H   H23       1.0  0.48704  0.53573  0.84581  1.0000
  C   C49       1.0  0.38462  0.62042  0.90113  1.0000
  C   C50       1.0  0.02516  0.50729  0.92178  1.0000
  H   H24       1.0  0.04624  0.51436  0.85849  1.0000
  C   C51       1.0  0.23365  0.61490  0.90533  1.0000
  C   C52       1.0  0.38279  0.76351  0.90729  1.0000
  B   B7        1.0  0.55180  0.44197  0.50021  1.0000
  B   B8        1.0  0.56621  0.11254  0.50140  1.0000
  C   C53       1.0  0.53694  0.05425  0.49988  1.0000
  B   B9        1.0  0.88755  0.44643  0.50117  1.0000
  B   B10       1.0  0.44314  0.55550  0.50709  1.0000
  B   B11       1.0  0.44642  0.88873  0.49690  1.0000
  C   C54       1.0  0.47815  0.94695  0.49725  1.0000
  B   B12       1.0  0.11047  0.55304  0.49702  1.0000
  C   C55       1.0  0.27902  0.63853  0.54591  1.0000
  C   C56       1.0  0.19012  0.59226  0.44962  1.0000
  H   H25       1.0  0.23483  0.61352  0.32556  1.0000
  O   O13       1.0  0.14081  0.56711  0.41829  1.0000
  C   C57       1.0  0.35891  0.63956  0.54825  1.0000
  C   C58       1.0  0.40442  0.59532  0.45666  1.0000
  H   H26       1.0  0.38376  0.61667  0.33036  1.0000
  O   O14       1.0  0.42906  0.57064  0.42725  1.0000
  C   C59       1.0  0.35888  0.71923  0.54559  1.0000
  C   C60       1.0  0.40421  0.80905  0.44948  1.0000
  H   H27       1.0  0.38114  0.76500  0.32534  1.0000
  O   O15       1.0  0.42982  0.85876  0.41813  1.0000
  C   C61       1.0  0.71889  0.36384  0.55023  1.0000
  C   C62       1.0  0.80824  0.40783  0.45411  1.0000
  H   H28       1.0  0.76415  0.38540  0.32995  1.0000
  O   O16       1.0  0.85749  0.43105  0.42262  1.0000
  C   C63       1.0  0.63737  0.35971  0.54992  1.0000
  C   C64       1.0  0.59200  0.40303  0.45334  1.0000
  H   H29       1.0  0.61589  0.38268  0.32941  1.0000
  O   O17       1.0  0.56719  0.42723  0.42179  1.0000
  C   C65       1.0  0.64140  0.28155  0.55030  1.0000
  C   C66       1.0  0.60193  0.19235  0.45433  1.0000
  H   H30       1.0  0.62136  0.23692  0.33005  1.0000
  O   O18       1.0  0.57925  0.14304  0.42278  1.0000
  C   C67       1.0  0.64119  0.28183  0.45430  1.0000
  C   C68       1.0  0.60305  0.19205  0.54936  1.0000
  H   H31       1.0  0.62361  0.23559  0.67397  1.0000
  O   O19       1.0  0.58151  0.14243  0.58045  1.0000
  C   C69       1.0  0.63781  0.36008  0.45396  1.0000
  C   C70       1.0  0.59162  0.40277  0.54840  1.0000
  H   H32       1.0  0.61376  0.38152  0.67334  1.0000
  O   O20       1.0  0.56663  0.42686  0.57908  1.0000
  C   C71       1.0  0.71900  0.36365  0.45425  1.0000
  C   C72       1.0  0.80820  0.40881  0.54914  1.0000
  H   H33       1.0  0.76445  0.38746  0.67394  1.0000
  O   O21       1.0  0.85751  0.43320  0.58024  1.0000
  C   C73       1.0  0.35912  0.71915  0.44965  1.0000
  C   C74       1.0  0.40476  0.80893  0.54452  1.0000
  H   H34       1.0  0.38187  0.76471  0.66921  1.0000
  O   O22       1.0  0.43090  0.85835  0.57591  1.0000
  C   C75       1.0  0.35974  0.63945  0.45231  1.0000
  C   C76       1.0  0.40357  0.59542  0.55171  1.0000
  H   H35       1.0  0.37995  0.61733  0.67419  1.0000
  O   O23       1.0  0.42783  0.57092  0.58490  1.0000
  C   C77       1.0  0.27952  0.63787  0.44998  1.0000
  C   C78       1.0  0.18976  0.59327  0.54466  1.0000
  H   H36       1.0  0.23304  0.61666  0.66954  1.0000
  O   O24       1.0  0.14038  0.56893  0.57593  1.0000
  C   C79       1.0  0.33199  0.66587  0.58646  1.0000
  H   H37       1.0  0.33344  0.66522  0.33595  1.0000
  C   C80       1.0  0.66550  0.33498  0.59021  1.0000
  H   H38       1.0  0.66617  0.33565  0.33963  1.0000
  C   C81       1.0  0.66589  0.33538  0.41421  1.0000
  H   H39       1.0  0.66537  0.33479  0.66480  1.0000
  C   C82       1.0  0.33306  0.66542  0.41053  1.0000
  H   H40       1.0  0.33154  0.66608  0.66095  1.0000
  C   C83       1.0  0.38079  0.61748  0.60025  1.0000
  C   C84       1.0  0.50186  0.97286  0.57800  1.0000
  H   H41       1.0  0.49750  0.95101  0.63955  1.0000
  C   C85       1.0  0.38175  0.76425  0.59532  1.0000
  C   C86       1.0  0.23393  0.61621  0.59561  1.0000
  C   C87       1.0  0.61415  0.38124  0.59939  1.0000
  C   C88       1.0  0.53078  0.02565  0.57935  1.0000
  H   H42       1.0  0.54905  0.04532  0.64199  1.0000
  C   C89       1.0  0.62281  0.23643  0.60006  1.0000
  C   C90       1.0  0.76373  0.38691  0.59998  1.0000
  C   C91       1.0  0.61511  0.38183  0.40335  1.0000
  C   C92       1.0  0.76383  0.38575  0.40387  1.0000
  C   C93       1.0  0.51372  0.02832  0.41883  1.0000
  H   H43       1.0  0.51840  0.05011  0.35704  1.0000
  C   C94       1.0  0.62146  0.23710  0.40400  1.0000
  C   C95       1.0  0.38273  0.61721  0.40425  1.0000
  C   C96       1.0  0.23488  0.61447  0.39950  1.0000
  C   C97       1.0  0.48466  0.97552  0.41751  1.0000
  H   H44       1.0  0.46653  0.95593  0.35473  1.0000
  C   C98       1.0  0.38144  0.76435  0.39928  1.0000
  C  Sn1       1.0  0.50172  0.51661  0.59486  1.0000
  C   C99       1.0  0.48581  0.53437  0.52183  1.0000
  C  Sn2       1.0  0.48444  0.51657  0.43387  1.0000
  C  Sn3       1.0  0.49926  0.48023  0.41857  1.0000
  C   C100      1.0  0.51515  0.46248  0.49156  1.0000
  C  Sn4       1.0  0.51654  0.48027  0.57956  1.0000
  O  Te1       1.0  0.50278  0.53494  0.68223  1.0000
  O  Te2       1.0  0.46842  0.53490  0.36194  1.0000
  O  Te3       1.0  0.49819  0.46191  0.33110  1.0000
  O  Te4       1.0  0.53254  0.46195  0.65146  1.0000
  Mg  Mg1       1.0  0.47350  0.49838  0.25527  1.0000
  Mg  Mg2       1.0  0.52745  0.49842  0.75816  1.0000
  C  Sn5       1.0  0.51351  0.98397  0.92230  1.0000
  C   C101      1.0  0.49113  0.95164  0.99703  1.0000
  C  Sn6       1.0  0.48421  0.97309  0.07730  1.0000
  C  Sn7       1.0  0.99137  0.02471  0.08299  1.0000
  C   C102      1.0  0.01374  0.05701  0.00829  1.0000
  C  Sn8       1.0  0.02068  0.03559  0.92799  1.0000
  O  Te5       1.0  0.52250  0.96494  0.84273  1.0000
  O  Te6       1.0  0.46181  0.94005  0.15111  1.0000
  O  Te7       1.0  0.98237  0.04373  0.16265  1.0000
  O  Te8       1.0  0.04306  0.06860  0.85421  1.0000
  Mg  Mg3       1.0  0.45715  0.98387  0.24474  1.0000
  Mg  Mg4       1.0  0.04771  0.02481  0.76054  1.0000
  C  Sn9       1.0  0.98515  0.51300  0.58181  1.0000
  C   C103      1.0  0.95185  0.48980  0.50944  1.0000
  C  Sn10      1.0  0.96865  0.47934  0.42854  1.0000
  C  Sn11      1.0  0.01979  0.49231  0.41980  1.0000
  C   C104      1.0  0.05305  0.51549  0.49214  1.0000
  C  Sn12      1.0  0.03629  0.52598  0.57307  1.0000
  O  Te9       1.0  0.96753  0.52311  0.66206  1.0000
  O  Te10      1.0  0.93466  0.45612  0.35712  1.0000
  O  Te11      1.0  0.03739  0.48219  0.33946  1.0000
  O  Te12      1.0  0.07024  0.54917  0.64446  1.0000
  Mg  Mg5       1.0  0.97665  0.45006  0.26142  1.0000
  Mg  Mg6       1.0  0.02828  0.55523  0.74021  1.0000
