data_image0
_chemical_formula_structural       B6C2HOC2HOC2HOC2HOC2HOC2HOC2HOC2HOC2HOC2HOC2HOC2HOCHCHCHCHC12B6C2HOC2HOC2HOC2HOC2HOC2HOC2HOC2HOC2HOC2HOC2HOC2HOCHCHCHCHC14Sn2C2HTe2HMgC2Sn2C2HTe2HMgC2Sn2C2HTe2HMgC2Sn2C2HTe2HMgC2Sn2C2HTe2HMgC2Sn2C2HTe2HMg
_chemical_formula_sum              "B12 C104 H44 O24 Sn12 Te12 Mg6"
_cell_length_a       30.7568
_cell_length_b       30.592
_cell_length_c       14.6906
_cell_angle_alpha    89.7626
_cell_angle_beta     89.9051
_cell_angle_gamma    120.587

_symmetry_space_group_name_H-M    'P1'
_space_group_IT_number       1

loop_
  _space_group_symop_operation_xyz
  'x, y, z'

loop_
  _atom_site_type_symbol
  _atom_site_label
  _atom_site_symmetry_multiplicity
  _atom_site_fract_x
  _atom_site_fract_y
  _atom_site_fract_z
  _atom_site_occupancy
  B   B1        1.0  0.56138  0.45167  0.99058  1.0000
  B   B2        1.0  0.55462  0.11138  0.00072  1.0000
  B   B3        1.0  0.88692  0.44424  0.00107  1.0000
  B   B4        1.0  0.45135  0.56310  0.99449  1.0000
  B   B5        1.0  0.44656  0.88698  0.00803  1.0000
  B   B6        1.0  0.10974  0.55289  0.00464  1.0000
  C   C1        1.0  0.27857  0.63587  0.05092  1.0000
  C   C2        1.0  0.18918  0.59224  0.95626  1.0000
  H   H1        1.0  0.23304  0.61534  0.83140  1.0000
  O   O1        1.0  0.13982  0.56802  0.92563  1.0000
  C   C3        1.0  0.35941  0.63789  0.04881  1.0000
  C   C4        1.0  0.40894  0.60007  0.95005  1.0000
  H   H2        1.0  0.38546  0.62179  0.82722  1.0000
  O   O2        1.0  0.43563  0.57826  0.91705  1.0000
  C   C5        1.0  0.35849  0.71683  0.05214  1.0000
  C   C6        1.0  0.40576  0.80759  0.95900  1.0000
  H   H3        1.0  0.38416  0.76495  0.83337  1.0000
  O   O3        1.0  0.43149  0.85741  0.92857  1.0000
  C   C7        1.0  0.71782  0.36166  0.04558  1.0000
  C   C8        1.0  0.80791  0.40554  0.95193  1.0000
  H   H4        1.0  0.76505  0.38343  0.82647  1.0000
  O   O4        1.0  0.85746  0.42910  0.92184  1.0000
  C   C9        1.0  0.63890  0.36207  0.04276  1.0000
  C   C10       1.0  0.59860  0.40965  0.94491  1.0000
  H   H5        1.0  0.61993  0.38639  0.82166  1.0000
  O   O5        1.0  0.57607  0.43594  0.91261  1.0000
  C   C11       1.0  0.63739  0.28131  0.04532  1.0000
  C   C12       1.0  0.59461  0.19124  0.95153  1.0000
  H   H6        1.0  0.61838  0.23521  0.82626  1.0000
  O   O6        1.0  0.57109  0.14151  0.92153  1.0000
  C   C13       1.0  0.63855  0.28111  0.94936  1.0000
  C   C14       1.0  0.59279  0.19146  0.04651  1.0000
  H   H7        1.0  0.61252  0.23596  0.17010  1.0000
  O   O7        1.0  0.56777  0.14194  0.07861  1.0000
  C   C15       1.0  0.63963  0.36190  0.94680  1.0000
  C   C16       1.0  0.59785  0.40961  0.03992  1.0000
  H   H8        1.0  0.61763  0.38671  0.16552  1.0000
  O   O8        1.0  0.57472  0.43561  0.06999  1.0000
  C   C17       1.0  0.71865  0.36140  0.94959  1.0000
  C   C18       1.0  0.80713  0.40620  0.04695  1.0000
  H   H9        1.0  0.76206  0.38528  0.17047  1.0000
  O   O9        1.0  0.85619  0.43046  0.07913  1.0000
  C   C19       1.0  0.35874  0.71788  0.95617  1.0000
  C   C20       1.0  0.40526  0.80666  0.05405  1.0000
  H   H10       1.0  0.38192  0.76082  0.17736  1.0000
  O   O10       1.0  0.43071  0.85601  0.08631  1.0000
  C   C21       1.0  0.35953  0.63911  0.95287  1.0000
  C   C22       1.0  0.40860  0.59856  0.04505  1.0000
  H   H11       1.0  0.38471  0.61675  0.17114  1.0000
  O   O11       1.0  0.43516  0.57578  0.07432  1.0000
  C   C23       1.0  0.27862  0.63690  0.95498  1.0000
  C   C24       1.0  0.18919  0.59162  0.05128  1.0000
  H   H12       1.0  0.23294  0.61231  0.17525  1.0000
  O   O12       1.0  0.13988  0.56734  0.08299  1.0000
  C   C25       1.0  0.33178  0.66274  0.09061  1.0000
  H   H13       1.0  0.33191  0.66569  0.84016  1.0000
  C   C26       1.0  0.66418  0.33491  0.08456  1.0000
  H   H14       1.0  0.66646  0.33457  0.83397  1.0000
  C   C27       1.0  0.66571  0.33463  0.90855  1.0000
  H   H15       1.0  0.66342  0.33484  0.15916  1.0000
  C   C28       1.0  0.33191  0.66478  0.91470  1.0000
  H   H16       1.0  0.33170  0.66171  0.16515  1.0000
  C   C29       1.0  0.38413  0.61753  0.09724  1.0000
  C   C30       1.0  0.38182  0.76135  0.10341  1.0000
  C   C31       1.0  0.23365  0.61308  0.10132  1.0000
  C   C32       1.0  0.61803  0.38609  0.09160  1.0000
  C   C33       1.0  0.61409  0.23628  0.09618  1.0000
  C   C34       1.0  0.76225  0.38443  0.09655  1.0000
  C   C35       1.0  0.61940  0.38591  0.89557  1.0000
  C   C36       1.0  0.76392  0.38349  0.90042  1.0000
  C   C37       1.0  0.61732  0.23584  0.90018  1.0000
  C   C38       1.0  0.38462  0.62042  0.90113  1.0000
  C   C39       1.0  0.23365  0.61490  0.90533  1.0000
  C   C40       1.0  0.38279  0.76351  0.90729  1.0000
  B   B7        1.0  0.55180  0.44197  0.50021  1.0000
  B   B8        1.0  0.56621  0.11254  0.50140  1.0000
  B   B9        1.0  0.88755  0.44643  0.50117  1.0000
  B   B10       1.0  0.44314  0.55550  0.50709  1.0000
  B   B11       1.0  0.44642  0.88873  0.49690  1.0000
  B   B12       1.0  0.11047  0.55304  0.49702  1.0000
  C   C41       1.0  0.27902  0.63853  0.54591  1.0000
  C   C42       1.0  0.19012  0.59226  0.44962  1.0000
  H   H17       1.0  0.23483  0.61352  0.32556  1.0000
  O   O13       1.0  0.14081  0.56711  0.41829  1.0000
  C   C43       1.0  0.35891  0.63956  0.54825  1.0000
  C   C44       1.0  0.40442  0.59532  0.45666  1.0000
  H   H18       1.0  0.38376  0.61667  0.33036  1.0000
  O   O14       1.0  0.42906  0.57064  0.42725  1.0000
  C   C45       1.0  0.35888  0.71923  0.54559  1.0000
  C   C46       1.0  0.40421  0.80905  0.44948  1.0000
  H   H19       1.0  0.38114  0.76500  0.32534  1.0000
  O   O15       1.0  0.42982  0.85876  0.41813  1.0000
  C   C47       1.0  0.71889  0.36384  0.55023  1.0000
  C   C48       1.0  0.80824  0.40783  0.45411  1.0000
  H   H20       1.0  0.76415  0.38540  0.32995  1.0000
  O   O16       1.0  0.85749  0.43105  0.42262  1.0000
  C   C49       1.0  0.63737  0.35971  0.54992  1.0000
  C   C50       1.0  0.59200  0.40303  0.45334  1.0000
  H   H21       1.0  0.61589  0.38268  0.32941  1.0000
  O   O17       1.0  0.56719  0.42723  0.42179  1.0000
  C   C51       1.0  0.64140  0.28155  0.55030  1.0000
  C   C52       1.0  0.60193  0.19235  0.45433  1.0000
  H   H22       1.0  0.62136  0.23692  0.33005  1.0000
  O   O18       1.0  0.57925  0.14304  0.42278  1.0000
  C   C53       1.0  0.64119  0.28183  0.45430  1.0000
  C   C54       1.0  0.60305  0.19205  0.54936  1.0000
  H   H23       1.0  0.62361  0.23559  0.67397  1.0000
  O   O19       1.0  0.58151  0.14243  0.58045  1.0000
  C   C55       1.0  0.63781  0.36008  0.45396  1.0000
  C   C56       1.0  0.59162  0.40277  0.54840  1.0000
  H   H24       1.0  0.61376  0.38152  0.67334  1.0000
  O   O20       1.0  0.56663  0.42686  0.57908  1.0000
  C   C57       1.0  0.71900  0.36365  0.45425  1.0000
  C   C58       1.0  0.80820  0.40881  0.54914  1.0000
  H   H25       1.0  0.76445  0.38746  0.67394  1.0000
  O   O21       1.0  0.85751  0.43320  0.58024  1.0000
  C   C59       1.0  0.35912  0.71915  0.44965  1.0000
  C   C60       1.0  0.40476  0.80893  0.54452  1.0000
  H   H26       1.0  0.38187  0.76471  0.66921  1.0000
  O   O22       1.0  0.43090  0.85835  0.57591  1.0000
  C   C61       1.0  0.35974  0.63945  0.45231  1.0000
  C   C62       1.0  0.40357  0.59542  0.55171  1.0000
  H   H27       1.0  0.37995  0.61733  0.67419  1.0000
  O   O23       1.0  0.42783  0.57092  0.58490  1.0000
  C   C63       1.0  0.27952  0.63787  0.44998  1.0000
  C   C64       1.0  0.18976  0.59327  0.54466  1.0000
  H   H28       1.0  0.23304  0.61666  0.66954  1.0000
  O   O24       1.0  0.14038  0.56893  0.57593  1.0000
  C   C65       1.0  0.33199  0.66587  0.58646  1.0000
  H   H29       1.0  0.33344  0.66522  0.33595  1.0000
  C   C66       1.0  0.66550  0.33498  0.59021  1.0000
  H   H30       1.0  0.66617  0.33565  0.33963  1.0000
  C   C67       1.0  0.66589  0.33538  0.41421  1.0000
  H   H31       1.0  0.66537  0.33479  0.66480  1.0000
  C   C68       1.0  0.33306  0.66542  0.41053  1.0000
  H   H32       1.0  0.33154  0.66608  0.66095  1.0000
  C   C69       1.0  0.38079  0.61748  0.60025  1.0000
  C   C70       1.0  0.38175  0.76425  0.59532  1.0000
  C   C71       1.0  0.23393  0.61621  0.59561  1.0000
  C   C72       1.0  0.61415  0.38124  0.59939  1.0000
  C   C73       1.0  0.62281  0.23643  0.60006  1.0000
  C   C74       1.0  0.76373  0.38691  0.59998  1.0000
  C   C75       1.0  0.61511  0.38183  0.40335  1.0000
  C   C76       1.0  0.76383  0.38575  0.40387  1.0000
  C   C77       1.0  0.62146  0.23710  0.40400  1.0000
  C   C78       1.0  0.38273  0.61721  0.40425  1.0000
  C   C79       1.0  0.23488  0.61447  0.39950  1.0000
  C   C80       1.0  0.38144  0.76435  0.39928  1.0000
  C   C81       1.0  0.49806  0.51268  0.08752  1.0000
  C   C82       1.0  0.48621  0.53441  0.01497  1.0000
  C  Sn1       1.0  0.49455  0.52424  0.92557  1.0000
  C  Sn2       1.0  0.51760  0.49496  0.90871  1.0000
  C   C83       1.0  0.52928  0.47335  0.98176  1.0000
  C   C84       1.0  0.52078  0.48379  0.07095  1.0000
  H   H33       1.0  0.48959  0.51823  0.15653  1.0000
  O  Te1       1.0  0.48248  0.54623  0.85388  1.0000
  O  Te2       1.0  0.52876  0.48740  0.82003  1.0000
  H   H34       1.0  0.52993  0.46693  0.12711  1.0000
  Mg  Mg1       1.0  0.50511  0.52510  0.74499  1.0000
  C   C85       1.0  0.48830  0.98550  0.10064  1.0000
  C   C86       1.0  0.47462  0.95128  0.02868  1.0000
  C  Sn3       1.0  0.48717  0.96580  0.93974  1.0000
  C  Sn4       1.0  0.01029  0.01882  0.92274  1.0000
  C   C87       1.0  0.02382  0.05275  0.99521  1.0000
  C   C88       1.0  0.01103  0.03780  0.08394  1.0000
  H   H35       1.0  0.47656  0.97144  0.16930  1.0000
  O  Te3       1.0  0.47316  0.93109  0.86863  1.0000
  O  Te4       1.0  0.02579  0.03760  0.83451  1.0000
  H   H36       1.0  0.02166  0.06430  0.13965  1.0000
  Mg  Mg2       1.0  0.50338  0.97521  0.76020  1.0000
  C   C89       1.0  0.98328  0.49406  0.09866  1.0000
  C   C90       1.0  0.95061  0.47770  0.02420  1.0000
  C  Sn5       1.0  0.96726  0.47989  0.93588  1.0000
  C  Sn6       1.0  0.02004  0.50210  0.92206  1.0000
  C   C91       1.0  0.05240  0.51831  0.99700  1.0000
  C   C92       1.0  0.03534  0.51595  0.08509  1.0000
  H   H37       1.0  0.96820  0.48971  0.16682  1.0000
  O  Te5       1.0  0.93409  0.46336  0.86225  1.0000
  O  Te6       1.0  0.04011  0.50795  0.83451  1.0000
  H   H38       1.0  0.06064  0.52859  0.14273  1.0000
  Mg  Mg3       1.0  0.97959  0.47955  0.75596  1.0000
  C   C93       1.0  0.48750  0.50152  0.60018  1.0000
  C   C94       1.0  0.47580  0.52416  0.52894  1.0000
  C  Sn7       1.0  0.48657  0.51816  0.43898  1.0000
  C  Sn8       1.0  0.50946  0.48894  0.42022  1.0000
  C   C95       1.0  0.52098  0.46642  0.49197  1.0000
  C   C96       1.0  0.51006  0.47267  0.58173  1.0000
  H   H39       1.0  0.47902  0.50634  0.66963  1.0000
  O  Te7       1.0  0.47466  0.54105  0.36862  1.0000
  O  Te8       1.0  0.52062  0.48232  0.33094  1.0000
  H   H40       1.0  0.51908  0.45512  0.63687  1.0000
  Mg  Mg4       1.0  0.49721  0.52102  0.25824  1.0000
  C   C97       1.0  0.51092  0.98463  0.59061  1.0000
  C   C98       1.0  0.48181  0.95256  0.52015  1.0000
  C  Sn9       1.0  0.48226  0.97256  0.43425  1.0000
  C  Sn10      1.0  0.00633  0.02565  0.41880  1.0000
  C   C99       1.0  0.03534  0.05740  0.48972  1.0000
  C   C100      1.0  0.03460  0.03699  0.57543  1.0000
  H   H41       1.0  0.51038  0.96884  0.65691  1.0000
  O  Te9       1.0  0.45294  0.93998  0.36461  1.0000
  O  Te10      1.0  0.00749  0.04664  0.33359  1.0000
  H   H42       1.0  0.05717  0.06182  0.62995  1.0000
  Mg  Mg5       1.0  0.46712  0.98667  0.26032  1.0000
  C   C101      1.0  0.01244  0.49665  0.40429  1.0000
  C   C102      1.0  0.04653  0.52235  0.47450  1.0000
  C  Sn11      1.0  0.02896  0.52181  0.56250  1.0000
  C  Sn12      1.0  0.97625  0.49499  0.58034  1.0000
  C   C103      1.0  0.94245  0.46938  0.50965  1.0000
  C   C104      1.0  0.96044  0.47018  0.42184  1.0000
  H   H43       1.0  0.02635  0.49725  0.33636  1.0000
  O  Te11      1.0  0.06354  0.54770  0.63185  1.0000
  O  Te12      1.0  0.95766  0.49381  0.66767  1.0000
  H   H44       1.0  0.93403  0.45026  0.36750  1.0000
  Mg  Mg6       1.0  0.01977  0.53493  0.73960  1.0000
