data_image0
_chemical_formula_structural       C2H2C4H4C2H2C4H4C2H2C4H4C2H2C2H2C2H2C2H2C4H4C2H2C4H4C2H2C2H2C2H2C4H4C2H2C2H2C2H2C2H2C2H2C2H2C2H2C4H4C4NC3HC2NC3HC2NC3HNC3HNCHNC3HNCHC2NCHNCHC2NCHC2NCHNC3HNCHC2NCHC2NC3HC2NC3HC2Sn2C2HTe2HMgC2Sn2C2HTe2HMgC2Sn2C2HTe2HMgC2Sn2C2HTe2HMgC2Sn2C2HTe2HMgC2Sn2C2HTe2HMgC2Sn2C2HTe2HMgC2Sn2C2HTe2HMgC2Sn2C2HTe2HMgC2Sn2C2HTe2HMgC2Sn2C2HTe2HMgC2Sn2C2HTe2HMgC2Sn2C2HTe2HMgC2Sn2C2HTe2HMgC2Sn2C2HTe2HMgC2Sn2C2HTe2HMg
_chemical_formula_sum              "C180 H112 N16 Sn32 Te32 Mg16"
_cell_length_a       23.449
_cell_length_b       23.5026
_cell_length_c       8.68327
_cell_angle_alpha    89.437
_cell_angle_beta     89.895
_cell_angle_gamma    87.642

_symmetry_space_group_name_H-M    'P1'
_space_group_IT_number       1

loop_
  _space_group_symop_operation_xyz
  'x, y, z'

loop_
  _atom_site_type_symbol
  _atom_site_label
  _atom_site_symmetry_multiplicity
  _atom_site_fract_x
  _atom_site_fract_y
  _atom_site_fract_z
  _atom_site_occupancy
  C   C1        1.0  0.03492  0.46267  0.30624  1.0000
  C   C2        1.0  0.03722  0.48462  0.15722  1.0000
  H   H1        1.0  0.07358  0.45589  0.37421  1.0000
  H   H2        1.0  0.07822  0.49619  0.11022  1.0000
  C   C3        1.0  0.54929  0.82761  0.45325  1.0000
  C   C4        1.0  0.54546  0.86578  0.32952  1.0000
  C   C5        1.0  0.42844  0.70520  0.79837  1.0000
  C   C6        1.0  0.38992  0.70878  0.92029  1.0000
  H   H3        1.0  0.59093  0.81680  0.50272  1.0000
  H   H4        1.0  0.58383  0.88578  0.28904  1.0000
  H   H5        1.0  0.44023  0.66359  0.75179  1.0000
  H   H6        1.0  0.37070  0.67020  0.96168  1.0000
  C   C7        1.0  0.57404  0.94813  0.78808  1.0000
  C   C8        1.0  0.57208  0.97018  0.63960  1.0000
  H   H7        1.0  0.61474  0.93337  0.83767  1.0000
  H   H8        1.0  0.61149  0.97176  0.57402  1.0000
  C   C9        1.0  0.95285  0.17826  0.95633  1.0000
  C   C10       1.0  0.95726  0.13924  0.83710  1.0000
  C   C11       1.0  0.06273  0.30705  0.30275  1.0000
  C   C12       1.0  0.09928  0.30888  0.42823  1.0000
  H   H9        1.0  0.91074  0.19220  0.99704  1.0000
  H   H10       1.0  0.91852  0.12229  0.79039  1.0000
  H   H11       1.0  0.04651  0.34675  0.25099  1.0000
  H   H12       1.0  0.11087  0.34937  0.47619  1.0000
  C   C13       1.0  0.93107  0.05731  0.30968  1.0000
  C   C14       1.0  0.93124  0.03572  0.16212  1.0000
  H   H13       1.0  0.89115  0.07353  0.36049  1.0000
  H   H14       1.0  0.89127  0.03635  0.09913  1.0000
  C   C15       1.0  0.43207  0.54139  0.80568  1.0000
  C   C16       1.0  0.43776  0.51878  0.65903  1.0000
  C   C17       1.0  0.70919  0.81641  0.44773  1.0000
  C   C18       1.0  0.73093  0.81251  0.59614  1.0000
  H   H15       1.0  0.38997  0.54563  0.85865  1.0000
  H   H16       1.0  0.39991  0.50452  0.60145  1.0000
  H   H17       1.0  0.70134  0.85807  0.39400  1.0000
  H   H18       1.0  0.73973  0.85162  0.65567  1.0000
  C   C19       1.0  0.57275  0.20824  0.19745  1.0000
  C   C20       1.0  0.61014  0.20996  0.07368  1.0000
  H   H19       1.0  0.55560  0.16776  0.23211  1.0000
  H   H20       1.0  0.62220  0.17035  0.01637  1.0000
  C   C21       1.0  0.45536  0.46259  0.18318  1.0000
  C   C22       1.0  0.44937  0.48195  0.33285  1.0000
  H   H21       1.0  0.41813  0.45535  0.11247  1.0000
  H   H22       1.0  0.40660  0.49044  0.37769  1.0000
  C   C23       1.0  0.92408  0.81670  0.72392  1.0000
  C   C24       1.0  0.88722  0.82086  0.59854  1.0000
  H   H23       1.0  0.93655  0.85514  0.78119  1.0000
  H   H24       1.0  0.87025  0.86207  0.55799  1.0000
  C   C25       1.0  0.79941  0.80029  0.06167  1.0000
  C   C26       1.0  0.77925  0.80406  0.91177  1.0000
  H   H25       1.0  0.81078  0.83815  0.12393  1.0000
  H   H26       1.0  0.77568  0.84580  0.85700  1.0000
  C   C27       1.0  0.54671  0.17739  0.54144  1.0000
  C   C28       1.0  0.54370  0.13793  0.66156  1.0000
  C   C29       1.0  0.43537  0.31357  0.18619  1.0000
  C   C30       1.0  0.39939  0.31631  0.05905  1.0000
  H   H27       1.0  0.58829  0.18810  0.49661  1.0000
  H   H28       1.0  0.58305  0.11795  0.70604  1.0000
  H   H29       1.0  0.45180  0.35268  0.23081  1.0000
  H   H30       1.0  0.38769  0.35697  0.00459  1.0000
  C   C31       1.0  0.29638  0.28391  0.55181  1.0000
  C   C32       1.0  0.27557  0.28355  0.40256  1.0000
  H   H31       1.0  0.30932  0.32310  0.60468  1.0000
  H   H32       1.0  0.27248  0.32332  0.33763  1.0000
  C   C33       1.0  0.44427  0.18821  0.53729  1.0000
  C   C34       1.0  0.44111  0.14863  0.65662  1.0000
  C   C35       1.0  0.57670  0.30972  0.22493  1.0000
  C   C36       1.0  0.61320  0.31169  0.09845  1.0000
  H   H33       1.0  0.40510  0.20793  0.49109  1.0000
  H   H34       1.0  0.40004  0.13711  0.70295  1.0000
  H   H35       1.0  0.56335  0.34899  0.28222  1.0000
  H   H36       1.0  0.62817  0.35214  0.05591  1.0000
  C   C37       1.0  0.93009  0.71490  0.69628  1.0000
  C   C38       1.0  0.89332  0.71897  0.57125  1.0000
  H   H37       1.0  0.94751  0.67325  0.73194  1.0000
  H   H38       1.0  0.88239  0.68015  0.51303  1.0000
  C   C39       1.0  0.79269  0.69831  0.05474  1.0000
  C   C40       1.0  0.77169  0.70233  0.90555  1.0000
  H   H39       1.0  0.79783  0.65674  0.11071  1.0000
  H   H40       1.0  0.76042  0.66347  0.84844  1.0000
  C   C41       1.0  0.43293  0.21125  0.18673  1.0000
  C   C42       1.0  0.39784  0.21356  0.05791  1.0000
  H   H41       1.0  0.44668  0.16990  0.23380  1.0000
  H   H42       1.0  0.38640  0.17375  0.00563  1.0000
  C   C43       1.0  0.55762  0.46148  0.21083  1.0000
  C   C44       1.0  0.55146  0.48012  0.36124  1.0000
  C   C45       1.0  0.28498  0.18236  0.57053  1.0000
  C   C46       1.0  0.26438  0.18210  0.42120  1.0000
  H   H43       1.0  0.60021  0.45337  0.16355  1.0000
  H   H44       1.0  0.58965  0.48572  0.42901  1.0000
  H   H45       1.0  0.28849  0.14289  0.63737  1.0000
  H   H46       1.0  0.25085  0.14223  0.37389  1.0000
  C   C47       1.0  0.05519  0.18026  0.96974  1.0000
  C   C48       1.0  0.05972  0.14183  0.84928  1.0000
  H   H47       1.0  0.09374  0.19603  0.02044  1.0000
  H   H48       1.0  0.10126  0.12759  0.80526  1.0000
  C   C49       1.0  0.03288  0.03895  0.32737  1.0000
  C   C50       1.0  0.03275  0.01660  0.17994  1.0000
  H   H49       1.0  0.07221  0.03993  0.39345  1.0000
  H   H50       1.0  0.07272  0.99964  0.13221  1.0000
  C   C51       1.0  0.43712  0.80687  0.80375  1.0000
  C   C52       1.0  0.39966  0.81048  0.92781  1.0000
  H   H51       1.0  0.45571  0.84547  0.75985  1.0000
  H   H52       1.0  0.38980  0.85113  0.98257  1.0000
  C   C53       1.0  0.53386  0.55174  0.81640  1.0000
  C   C54       1.0  0.53913  0.53062  0.66873  1.0000
  H   H53       1.0  0.57078  0.56527  0.87998  1.0000
  H   H54       1.0  0.58124  0.52859  0.61651  1.0000
  C   C55       1.0  0.06540  0.20463  0.31982  1.0000
  C   C56       1.0  0.10180  0.20613  0.44580  1.0000
  H   H55       1.0  0.05131  0.16367  0.28078  1.0000
  H   H56       1.0  0.11439  0.16616  0.50286  1.0000
  C   C57       1.0  0.93260  0.45834  0.28391  1.0000
  C   C58       1.0  0.93503  0.47925  0.13479  1.0000
  H   H57       1.0  0.89183  0.44685  0.33300  1.0000
  H   H58       1.0  0.89596  0.48319  0.06785  1.0000
  C   C59       1.0  0.44769  0.81705  0.44347  1.0000
  C   C60       1.0  0.44377  0.85404  0.31800  1.0000
  H   H59       1.0  0.40937  0.79773  0.48641  1.0000
  H   H60       1.0  0.40301  0.86280  0.26123  1.0000
  C   C61       1.0  0.47151  0.95986  0.80750  1.0000
  C   C62       1.0  0.46972  0.98248  0.65917  1.0000
  C   C63       1.0  0.70802  0.71405  0.43609  1.0000
  C   C64       1.0  0.72880  0.71039  0.58531  1.0000
  H   H61       1.0  0.43254  0.95541  0.87400  1.0000
  H   H62       1.0  0.42879  0.99692  0.61121  1.0000
  H   H63       1.0  0.69834  0.67595  0.37255  1.0000
  H   H64       1.0  0.73505  0.66841  0.63749  1.0000
  C   C65       1.0  0.99724  0.25368  0.12503  1.0000
  C   C66       1.0  0.50358  0.75124  0.62476  1.0000
  C   C67       1.0  0.00127  0.75992  0.87439  1.0000
  C   C68       1.0  0.50026  0.25755  0.37500  1.0000
  N   N1        1.0  0.01829  0.40853  0.61306  1.0000
  C   C69       1.0  0.98739  0.49344  0.06674  1.0000
  C   C70       1.0  0.98237  0.44900  0.37301  1.0000
  C   C71       1.0  0.97607  0.42216  0.52264  1.0000
  H   H65       1.0  0.93195  0.41177  0.55037  1.0000
  C   C72       1.0  0.50061  0.80197  0.51124  1.0000
  C   C73       1.0  0.49296  0.87733  0.25427  1.0000
  N   N2        1.0  0.48528  0.90786  0.11571  1.0000
  C   C74       1.0  0.51986  0.98862  0.57070  1.0000
  C   C75       1.0  0.52390  0.94256  0.87598  1.0000
  C   C76       1.0  0.52867  0.91602  0.02710  1.0000
  H   H66       1.0  0.57217  0.90109  0.05876  1.0000
  C   C77       1.0  0.00164  0.20088  0.02181  1.0000
  C   C78       1.0  0.01098  0.12311  0.77428  1.0000
  N   N3        1.0  0.02032  0.09195  0.63870  1.0000
  C   C79       1.0  0.98210  0.01453  0.09171  1.0000
  C   C80       1.0  0.98183  0.05998  0.39586  1.0000
  C   C81       1.0  0.97804  0.08713  0.54476  1.0000
  H   H67       1.0  0.93555  0.10617  0.57037  1.0000
  N   N4        1.0  0.51755  0.59731  0.11835  1.0000
  C   C82       1.0  0.49129  0.51338  0.58465  1.0000
  C   C83       1.0  0.48003  0.55832  0.88786  1.0000
  C   C84       1.0  0.47364  0.58377  0.03870  1.0000
  H   H68       1.0  0.42942  0.59204  0.07743  1.0000
  N   N5        1.0  0.01577  0.90652  0.39683  1.0000
  C   C85       1.0  0.97244  0.92776  0.47216  1.0000
  H   H69       1.0  0.92880  0.92851  0.42584  1.0000
  N   N6        1.0  0.47708  0.41085  0.88345  1.0000
  C   C86       1.0  0.49715  0.49128  0.42738  1.0000
  C   C87       1.0  0.50987  0.45158  0.11850  1.0000
  C   C88       1.0  0.51875  0.42775  0.96649  1.0000
  H   H70       1.0  0.56357  0.42313  0.92990  1.0000
  N   N7        1.0  0.02535  0.59537  0.36071  1.0000
  C   C89       1.0  0.98286  0.59011  0.45459  1.0000
  H   H71       1.0  0.94016  0.60844  0.42717  1.0000
  C   C90       1.0  0.49724  0.20474  0.48052  1.0000
  C   C91       1.0  0.49067  0.12525  0.72776  1.0000
  N   N8        1.0  0.48243  0.09383  0.86397  1.0000
  C   C92       1.0  0.52458  0.08652  0.95914  1.0000
  H   H72       1.0  0.56689  0.10272  0.93322  1.0000
  N   N9        1.0  0.83796  0.27174  0.62067  1.0000
  C   C93       1.0  0.82801  0.22820  0.70778  1.0000
  H   H73       1.0  0.66449  0.18243  0.82845  1.0000
  C   C94       1.0  0.45314  0.75412  0.73852  1.0000
  C   C95       1.0  0.37695  0.76121  0.99251  1.0000
  N   N10       1.0  0.34582  0.76839  0.12983  1.0000
  C   C96       1.0  0.33632  0.72418  0.21467  1.0000
  H   H74       1.0  0.17929  0.68130  0.34681  1.0000
  C   C97       1.0  0.04509  0.25495  0.24619  1.0000
  C   C98       1.0  0.11886  0.25869  0.50376  1.0000
  N   N11       1.0  0.15048  0.26633  0.63836  1.0000
  C   C99       1.0  0.16997  0.22279  0.71664  1.0000
  H   H75       1.0  0.32639  0.18849  0.84802  1.0000
  N   N12       1.0  0.66119  0.73072  0.12652  1.0000
  C   C100      1.0  0.74123  0.75938  0.67081  1.0000
  C   C101      1.0  0.69717  0.76741  0.36387  1.0000
  C   C102      1.0  0.67131  0.77371  0.21284  1.0000
  H   H76       1.0  0.83543  0.69558  0.33000  1.0000
  N   N13       1.0  0.15195  0.76742  0.35382  1.0000
  C   C103      1.0  0.17665  0.72342  0.29054  1.0000
  H   H77       1.0  0.34976  0.68088  0.17982  1.0000
  C   C104      1.0  0.55380  0.25823  0.27264  1.0000
  C   C105      1.0  0.62862  0.26234  0.01534  1.0000
  N   N14       1.0  0.65697  0.27002  0.87459  1.0000
  C   C106      1.0  0.67060  0.22646  0.78990  1.0000
  H   H78       1.0  0.83820  0.18433  0.67139  1.0000
  C   C107      1.0  0.94801  0.76380  0.77134  1.0000
  C   C108      1.0  0.87349  0.77257  0.51413  1.0000
  N   N15       1.0  0.84503  0.78244  0.37391  1.0000
  C   C109      1.0  0.76428  0.75533  0.82839  1.0000
  C   C110      1.0  0.80692  0.74705  0.13687  1.0000
  C   C111      1.0  0.83038  0.74007  0.29046  1.0000
  H   H79       1.0  0.65846  0.81767  0.18013  1.0000
  C   C112      1.0  0.45271  0.26105  0.25266  1.0000
  C   C113      1.0  0.38053  0.26644  0.99106  1.0000
  N   N16       1.0  0.34987  0.27363  0.85326  1.0000
  C   C114      1.0  0.25973  0.23258  0.33179  1.0000
  C   C115      1.0  0.30201  0.23307  0.63859  1.0000
  C   C116      1.0  0.32717  0.23035  0.79084  1.0000
  H   H80       1.0  0.16624  0.17883  0.67746  1.0000
  C   C117      1.0  0.77434  0.17353  0.05315  1.0000
  C   C118      1.0  0.76523  0.21933  0.15289  1.0000
  C  Sn1       1.0  0.77399  0.27488  0.10208  1.0000
  C  Sn2       1.0  0.79165  0.28103  0.94849  1.0000
  C   C119      1.0  0.80060  0.23493  0.84957  1.0000
  C   C120      1.0  0.79173  0.17951  0.90163  1.0000
  H   H81       1.0  0.76745  0.13065  0.09338  1.0000
  O  Te1       1.0  0.76471  0.32015  0.20326  1.0000
  O  Te2       1.0  0.80070  0.33612  0.89469  1.0000
  H   H82       1.0  0.79875  0.14406  0.82434  1.0000
  Mg  Mg1       1.0  0.78286  0.38748  0.07615  1.0000
  C   C121      1.0  0.06557  0.85392  0.14475  1.0000
  C   C122      1.0  0.02077  0.87733  0.23310  1.0000
  C  Sn3       1.0  0.96454  0.86342  0.20301  1.0000
  C  Sn4       1.0  0.95309  0.82533  0.08219  1.0000
  C   C123      1.0  0.99769  0.79850  0.99453  1.0000
  C   C124      1.0  0.05432  0.81634  0.02559  1.0000
  H   H83       1.0  0.10899  0.86490  0.16883  1.0000
  O  Te3       1.0  0.92028  0.88721  0.29236  1.0000
  O  Te4       1.0  0.89730  0.81068  0.04968  1.0000
  H   H84       1.0  0.08848  0.79457  0.95724  1.0000
  Mg  Mg2       1.0  0.85141  0.85419  0.20358  1.0000
  C   C125      1.0  0.90995  0.31852  0.30027  1.0000
  C   C126      1.0  0.93869  0.27105  0.23666  1.0000
  C  Sn5       1.0  0.92777  0.21632  0.29032  1.0000
  C  Sn6       1.0  0.88730  0.20912  0.40987  1.0000
  C   C127      1.0  0.85874  0.25688  0.47267  1.0000
  C   C128      1.0  0.87000  0.31145  0.41815  1.0000
  H   H85       1.0  0.91863  0.36074  0.25804  1.0000
  O  Te5       1.0  0.95688  0.16936  0.22552  1.0000
  O  Te6       1.0  0.87555  0.15490  0.46562  1.0000
  H   H86       1.0  0.84772  0.34819  0.46736  1.0000
  Mg  Mg3       1.0  0.92618  0.10411  0.34042  1.0000
  C   C129      1.0  0.71217  0.17215  0.52041  1.0000
  C   C130      1.0  0.69944  0.21722  0.62019  1.0000
  C  Sn7       1.0  0.70328  0.27349  0.56907  1.0000
  C  Sn8       1.0  0.72018  0.28471  0.41512  1.0000
  C   C131      1.0  0.73278  0.23932  0.31616  1.0000
  C   C132      1.0  0.72881  0.18318  0.36853  1.0000
  H   H87       1.0  0.70907  0.12872  0.56089  1.0000
  O  Te7       1.0  0.69043  0.31801  0.67029  1.0000
  O  Te8       1.0  0.72434  0.34054  0.36100  1.0000
  H   H88       1.0  0.73864  0.14830  0.29122  1.0000
  Mg  Mg4       1.0  0.70243  0.38682  0.54267  1.0000
  C   C133      1.0  0.28774  0.78705  0.47133  1.0000
  C   C134      1.0  0.30799  0.74119  0.38262  1.0000
  C  Sn9       1.0  0.30401  0.68543  0.43763  1.0000
  C  Sn10      1.0  0.27926  0.67552  0.58419  1.0000
  C   C135      1.0  0.25910  0.72168  0.67201  1.0000
  C   C136      1.0  0.26331  0.77731  0.61587  1.0000
  H   H89       1.0  0.29097  0.83009  0.42787  1.0000
  O  Te9       1.0  0.32447  0.64011  0.34753  1.0000
  O  Te10      1.0  0.27473  0.62022  0.64193  1.0000
  H   H90       1.0  0.24760  0.81280  0.68454  1.0000
  Mg  Mg5       1.0  0.30875  0.57247  0.47620  1.0000
  C   C137      1.0  0.03843  0.96184  0.73473  1.0000
  C   C138      1.0  0.99130  0.94856  0.64569  1.0000
  C  Sn11      1.0  0.93599  0.95957  0.70094  1.0000
  C  Sn12      1.0  0.92784  0.98436  0.84809  1.0000
  C   C139      1.0  0.01651  0.99754  0.93623  1.0000
  C   C140      1.0  0.03044  0.98632  0.87985  1.0000
  H   H91       1.0  0.08111  0.95320  0.69108  1.0000
  O  Te11      1.0  0.88938  0.94601  0.61051  1.0000
  O  Te12      1.0  0.87303  0.99584  0.90608  1.0000
  H   H92       1.0  0.10815  0.99665  0.94877  1.0000
  Mg  Mg6       1.0  0.82304  0.96972  0.73972  1.0000
  C   C141      1.0  0.43428  0.33952  0.56318  1.0000
  C   C142      1.0  0.48270  0.31373  0.49519  1.0000
  C  Sn13      1.0  0.53645  0.31930  0.56118  1.0000
  C  Sn14      1.0  0.54170  0.35129  0.69778  1.0000
  C   C143      1.0  0.49299  0.37689  0.76497  1.0000
  C   C144      1.0  0.43941  0.37106  0.69795  1.0000
  H   H93       1.0  0.39281  0.33499  0.51138  1.0000
  O  Te13      1.0  0.58439  0.29327  0.49172  1.0000
  O  Te14      1.0  0.59490  0.35752  0.76618  1.0000
  H   H94       1.0  0.40192  0.39101  0.75067  1.0000
  Mg  Mg7       1.0  0.64764  0.31405  0.62833  1.0000
  C   C145      1.0  0.61107  0.80093  0.88527  1.0000
  C   C146      1.0  0.62899  0.75309  0.97194  1.0000
  C  Sn15      1.0  0.61013  0.69931  0.93470  1.0000
  C  Sn16      1.0  0.57265  0.69346  0.80827  1.0000
  C   C147      1.0  0.55501  0.74158  0.72221  1.0000
  C   C148      1.0  0.57412  0.79519  0.76051  1.0000
  H   H95       1.0  0.62589  0.84241  0.91483  1.0000
  O  Te15      1.0  0.62897  0.65557  0.02254  1.0000
  O  Te16      1.0  0.55317  0.64021  0.76850  1.0000
  H   H96       1.0  0.56027  0.83222  0.69332  1.0000
  Mg  Mg8       1.0  0.59011  0.58841  0.92310  1.0000
  C   C149      1.0  0.22940  0.17069  0.06245  1.0000
  C   C150      1.0  0.24222  0.21791  0.15059  1.0000
  C  Sn17      1.0  0.22873  0.27295  0.09611  1.0000
  C  Sn18      1.0  0.20137  0.27711  0.95066  1.0000
  C   C151      1.0  0.18869  0.22959  0.86340  1.0000
  C   C152      1.0  0.20239  0.17470  0.91900  1.0000
  H   H97       1.0  0.23997  0.12822  0.10549  1.0000
  O  Te17      1.0  0.24185  0.31966  0.18564  1.0000
  O  Te18      1.0  0.18740  0.33165  0.89348  1.0000
  H   H98       1.0  0.19243  0.13815  0.85077  1.0000
  Mg  Mg9       1.0  0.21441  0.38551  0.05807  1.0000
  C   C153      1.0  0.22760  0.66774  0.03347  1.0000
  C   C154      1.0  0.20913  0.71321  0.12603  1.0000
  C  Sn19      1.0  0.20634  0.76867  0.06635  1.0000
  C  Sn20      1.0  0.22181  0.77506  0.91107  1.0000
  C   C155      1.0  0.24019  0.72928  0.81938  1.0000
  C   C156      1.0  0.24284  0.67395  0.88028  1.0000
  H   H99       1.0  0.22962  0.62493  0.08055  1.0000
  O  Te19      1.0  0.18781  0.81361  0.16044  1.0000
  O  Te20      1.0  0.21941  0.83007  0.84848  1.0000
  H   H100      1.0  0.25710  0.63875  0.80856  1.0000
  Mg  Mg10      1.0  0.19189  0.88096  0.02252  1.0000
  C   C157      1.0  0.94367  0.33329  0.90033  1.0000
  C   C158      1.0  0.98732  0.30480  0.98334  1.0000
  C  Sn21      1.0  0.04438  0.31536  0.95171  1.0000
  C  Sn22      1.0  0.05785  0.35523  0.83476  1.0000
  C   C159      1.0  0.01386  0.38354  0.75245  1.0000
  C   C160      1.0  0.95691  0.37264  0.78501  1.0000
  H   H101      1.0  0.89960  0.32488  0.92557  1.0000
  O  Te21      1.0  0.08801  0.29011  0.03570  1.0000
  O  Te22      1.0  0.11452  0.36661  0.80082  1.0000
  H   H102      1.0  0.92312  0.39473  0.72079  1.0000
  Mg  Mg11      1.0  0.15820  0.31653  0.94693  1.0000
  C   C161      1.0  0.95017  0.67114  0.06554  1.0000
  C   C162      1.0  0.99185  0.69962  0.99700  1.0000
  C  Sn23      1.0  0.04971  0.69300  0.03581  1.0000
  C  Sn24      1.0  0.06493  0.64982  0.14527  1.0000
  C   C163      1.0  0.02239  0.61794  0.21311  1.0000
  C   C164      1.0  0.96515  0.62853  0.17347  1.0000
  H   H103      1.0  0.90589  0.67932  0.03482  1.0000
  O  Te23      1.0  0.09082  0.72185  0.96628  1.0000
  O  Te24      1.0  0.12191  0.63870  0.18613  1.0000
  H   H104      1.0  0.93248  0.60366  0.22648  1.0000
  Mg  Mg12      1.0  0.16317  0.69432  0.05980  1.0000
  C   C165      1.0  0.92834  0.55757  0.72915  1.0000
  C   C166      1.0  0.97348  0.56442  0.62625  1.0000
  C  Sn25      1.0  0.02858  0.54436  0.66479  1.0000
  C  Sn26      1.0  0.03853  0.51692  0.80910  1.0000
  C   C167      1.0  0.99307  0.51024  0.91120  1.0000
  C   C168      1.0  0.93811  0.53050  0.87149  1.0000
  H   H105      1.0  0.88581  0.57321  0.69841  1.0000
  O  Te25      1.0  0.07321  0.55158  0.56065  1.0000
  O  Te26      1.0  0.09317  0.49644  0.85052  1.0000
  H   H106      1.0  0.90315  0.52515  0.95115  1.0000
  Mg  Mg13      1.0  0.14011  0.51642  0.66965  1.0000
  C   C169      1.0  0.07307  0.70143  0.64607  1.0000
  C   C170      1.0  0.05628  0.74626  0.74282  1.0000
  C  Sn27      1.0  0.07033  0.80198  0.70616  1.0000
  C  Sn28      1.0  0.10176  0.81290  0.57000  1.0000
  C   C171      1.0  0.11832  0.76776  0.47391  1.0000
  C   C172      1.0  0.10405  0.71216  0.51173  1.0000
  H   H107      1.0  0.06200  0.65841  0.67527  1.0000
  O  Te27      1.0  0.05324  0.84627  0.80413  1.0000
  O  Te28      1.0  0.11636  0.86819  0.53057  1.0000
  H   H108      1.0  0.11703  0.67747  0.43674  1.0000
  Mg  Mg14      1.0  0.08338  0.91432  0.70093  1.0000
  C   C173      1.0  0.57745  0.05488  0.24007  1.0000
  C   C174      1.0  0.53502  0.05564  0.12720  1.0000
  C  Sn29      1.0  0.48065  0.03701  0.16243  1.0000
  C  Sn30      1.0  0.46868  0.01730  0.31357  1.0000
  C   C175      1.0  0.51142  0.01676  0.42570  1.0000
  C   C176      1.0  0.56567  0.03547  0.38919  1.0000
  H   H109      1.0  0.61942  0.06940  0.21186  1.0000
  O  Te29      1.0  0.43876  0.03802  0.04827  1.0000
  O  Te30      1.0  0.37347  0.99846  0.35192  1.0000
  H   H110      1.0  0.59851  0.03492  0.47663  1.0000
  Mg  Mg15      1.0  0.37176  0.00801  0.15663  1.0000
  C   C177      1.0  0.56702  0.67770  0.41345  1.0000
  C   C178      1.0  0.51961  0.69788  0.49745  1.0000
  C  Sn31      1.0  0.46535  0.67880  0.46465  1.0000
  C  Sn32      1.0  0.45855  0.63876  0.34551  1.0000
  C   C179      1.0  0.50625  0.61880  0.26222  1.0000
  C   C180      1.0  0.56035  0.63819  0.29596  1.0000
  H   H111      1.0  0.60888  0.69267  0.43961  1.0000
  O  Te31      1.0  0.41844  0.69942  0.54966  1.0000
  O  Te32      1.0  0.40481  0.61897  0.31036  1.0000
  H   H112      1.0  0.59705  0.62253  0.23097  1.0000
  Mg  Mg16      1.0  0.35391  0.65967  0.45857  1.0000
