data_image0
_chemical_formula_structural       C4H2C5H2C5H2C5H2C4H2C3H2C3H2C3H2N8C2HCHC2HCHC6H2C5H2C5H2C5H2C4H2C3H2C3H2C3H2N8C2HCHC2HCHC2SnCSn2CSnTe4Mg2SnCSn2CSnTe4Mg2SnCSn2CSnTe4Mg2SnCSn2CSnTe4Mg2SnCSn2CSnTe4Mg2SnCSn2CSnTe4Mg2SnCSn2CSnTe4Mg2SnCSn2CSnTe4Mg2SnCSn2CSnTe4Mg2SnCSn2CSnTe4Mg2SnCSn2CSnTe4Mg2SnCSn2CSnTe4Mg2SnCSn2CSnTe4Mg2SnCSn2CSnTe4Mg2SnCSn2CSnTe4Mg2SnCSn2CSnTe4Mg2
_chemical_formula_sum              "C112 H40 N16 Sn64 Te64 Mg32"
_cell_length_a       30.648
_cell_length_b       24.3635
_cell_length_c       10.7536
_cell_angle_alpha    95.344
_cell_angle_beta     130.484
_cell_angle_gamma    89.9583

_symmetry_space_group_name_H-M    'P1'
_space_group_IT_number       1

loop_
  _space_group_symop_operation_xyz
  'x, y, z'

loop_
  _atom_site_type_symbol
  _atom_site_label
  _atom_site_symmetry_multiplicity
  _atom_site_fract_x
  _atom_site_fract_y
  _atom_site_fract_z
  _atom_site_occupancy
  C   C1        1.0  0.03192  0.55946  0.95802  1.0000
  C   C2        1.0  0.05780  0.47003  0.90974  1.0000
  C   C3        1.0  0.03568  0.38507  0.98107  1.0000
  C   C4        1.0  0.19661  0.25360  0.00457  1.0000
  H   H1        1.0  0.07713  0.44577  0.86889  1.0000
  H   H2        1.0  0.18250  0.20989  0.95433  1.0000
  C   C5        1.0  0.53149  0.06197  0.96500  1.0000
  C   C6        1.0  0.95611  0.44414  0.98569  1.0000
  C   C7        1.0  0.91701  0.53175  0.98402  1.0000
  C   C8        1.0  0.96109  0.62039  0.99596  1.0000
  C   C9        1.0  0.81387  0.74952  0.04374  1.0000
  H   H3        1.0  0.88744  0.55428  0.98876  1.0000
  H   H4        1.0  0.83450  0.78557  0.13799  1.0000
  C   C10       1.0  0.46952  0.94520  0.03199  1.0000
  C   C11       1.0  0.95655  0.56168  0.98217  1.0000
  C   C12       1.0  0.91594  0.47557  0.98180  1.0000
  C   C13       1.0  0.95967  0.38638  0.00027  1.0000
  C   C14       1.0  0.80126  0.25720  0.99740  1.0000
  H   H5        1.0  0.88399  0.45436  0.97828  1.0000
  H   H6        1.0  0.79133  0.21381  0.94349  1.0000
  C   C15       1.0  0.47026  0.06298  0.04118  1.0000
  C   C16       1.0  0.03057  0.44199  0.95742  1.0000
  C   C17       1.0  0.05822  0.52618  0.90918  1.0000
  C   C18       1.0  0.03998  0.61838  0.98931  1.0000
  C   C19       1.0  0.20399  0.74678  0.01449  1.0000
  H   H7        1.0  0.07761  0.54591  0.86700  1.0000
  H   H8        1.0  0.19336  0.78922  0.98487  1.0000
  C   C20       1.0  0.53036  0.94420  0.95415  1.0000
  C   C21       1.0  0.55392  0.97374  0.89843  1.0000
  C   C22       1.0  0.53291  0.88608  0.96085  1.0000
  C   C23       1.0  0.68419  0.75346  0.93996  1.0000
  H   H9        1.0  0.57021  0.95055  0.84668  1.0000
  H   H10       1.0  0.66770  0.71102  0.87792  1.0000
  C   C24       1.0  0.44709  0.03359  0.09827  1.0000
  C   C25       1.0  0.46812  0.12114  0.03522  1.0000
  C   C26       1.0  0.31752  0.25497  0.05598  1.0000
  H   H11       1.0  0.43118  0.05695  0.15106  1.0000
  H   H12       1.0  0.33327  0.29805  0.11200  1.0000
  C   C27       1.0  0.44694  0.97726  0.09449  1.0000
  C   C28       1.0  0.46559  0.88627  0.01304  1.0000
  C   C29       1.0  0.31830  0.74899  0.03470  1.0000
  H   H13       1.0  0.43093  0.95644  0.14450  1.0000
  H   H14       1.0  0.33270  0.70834  0.07670  1.0000
  C   C30       1.0  0.55437  0.03007  0.90331  1.0000
  C   C31       1.0  0.53629  0.12089  0.98644  1.0000
  C   C32       1.0  0.69865  0.25723  0.02250  1.0000
  H   H15       1.0  0.57101  0.05109  0.85531  1.0000
  H   H16       1.0  0.68881  0.30010  0.99718  1.0000
  N   N1        1.0  0.24386  0.27450  0.04436  1.0000
  N   N2        1.0  0.73390  0.77306  0.99378  1.0000
  N   N3        1.0  0.75934  0.73580  0.95642  1.0000
  N   N4        1.0  0.26904  0.23521  0.01064  1.0000
  N   N5        1.0  0.77682  0.27745  0.05303  1.0000
  N   N6        1.0  0.27212  0.76573  0.00358  1.0000
  N   N7        1.0  0.24673  0.72698  0.03106  1.0000
  N   N8        1.0  0.74352  0.23827  0.05026  1.0000
  C   C33       1.0  0.00030  0.35929  0.00189  1.0000
  C   C34       1.0  0.99383  0.53120  0.96987  1.0000
  H   H17       1.0  0.00599  0.31637  0.02602  1.0000
  C   C35       1.0  0.49854  0.85893  0.98266  1.0000
  H   H18       1.0  0.49770  0.81414  0.97686  1.0000
  C   C36       1.0  0.00442  0.64671  0.00865  1.0000
  C   C37       1.0  0.99354  0.47235  0.97129  1.0000
  H   H19       1.0  0.01059  0.69154  0.03468  1.0000
  C   C38       1.0  0.50282  0.14835  0.01466  1.0000
  H   H20       1.0  0.50386  0.19317  0.02134  1.0000
  C   C39       1.0  0.50042  0.03308  0.99988  1.0000
  C   C40       1.0  0.49999  0.97402  0.99499  1.0000
  C   C41       1.0  0.03942  0.55746  0.50258  1.0000
  C   C42       1.0  0.08860  0.47302  0.54837  1.0000
  C   C43       1.0  0.04357  0.38210  0.52145  1.0000
  C   C44       1.0  0.20815  0.25152  0.56180  1.0000
  H   H21       1.0  0.12600  0.45286  0.58193  1.0000
  H   H22       1.0  0.22146  0.21654  0.63380  1.0000
  C   C45       1.0  0.54417  0.05510  0.51896  1.0000
  C   C46       1.0  0.95490  0.43857  0.48565  1.0000
  C   C47       1.0  0.90503  0.52276  0.43618  1.0000
  C   C48       1.0  0.94923  0.61278  0.45893  1.0000
  C   C49       1.0  0.78782  0.73445  0.46042  1.0000
  H   H23       1.0  0.86900  0.54360  0.41027  1.0000
  H   H24       1.0  0.80698  0.76128  0.57523  1.0000
  C   C50       1.0  0.45664  0.93495  0.48411  1.0000
  C   C51       1.0  0.94920  0.55458  0.45844  1.0000
  C   C52       1.0  0.90745  0.46722  0.44709  1.0000
  C   C53       1.0  0.96043  0.38156  0.50954  1.0000
  C   C54       1.0  0.79413  0.25030  0.46746  1.0000
  H   H25       1.0  0.87246  0.44408  0.42569  1.0000
  H   H26       1.0  0.78415  0.20736  0.41039  1.0000
  C   C55       1.0  0.45674  0.05283  0.48963  1.0000
  C   C56       1.0  0.04321  0.44044  0.51862  1.0000
  C   C57       1.0  0.08707  0.52886  0.54208  1.0000
  C   C58       1.0  0.03677  0.61547  0.49368  1.0000
  C   C59       1.0  0.20622  0.74868  0.55265  1.0000
  H   H27       1.0  0.12341  0.55251  0.57169  1.0000
  H   H28       1.0  0.22009  0.78956  0.62484  1.0000
  C   C60       1.0  0.54374  0.93743  0.51194  1.0000
  C   C61       1.0  0.58978  0.96986  0.54491  1.0000
  C   C62       1.0  0.54147  0.87863  0.49969  1.0000
  C   C63       1.0  0.68655  0.75071  0.43752  1.0000
  H   H29       1.0  0.62585  0.94913  0.57092  1.0000
  H   H30       1.0  0.70277  0.71406  0.50325  1.0000
  C   C64       1.0  0.41021  0.02024  0.45362  1.0000
  C   C65       1.0  0.45962  0.11164  0.50415  1.0000
  C   C66       1.0  0.29974  0.24167  0.48940  1.0000
  H   H31       1.0  0.37376  0.04084  0.42555  1.0000
  H   H32       1.0  0.28682  0.27746  0.42064  1.0000
  C   C67       1.0  0.41000  0.96397  0.45007  1.0000
  C   C68       1.0  0.46016  0.87703  0.49629  1.0000
  C   C69       1.0  0.29852  0.74828  0.48148  1.0000
  H   H33       1.0  0.37316  0.94049  0.41794  1.0000
  H   H34       1.0  0.28665  0.70571  0.42028  1.0000
  C   C70       1.0  0.59002  0.02608  0.54840  1.0000
  C   C71       1.0  0.54242  0.11335  0.51494  1.0000
  C   C72       1.0  0.70262  0.24926  0.54076  1.0000
  H   H35       1.0  0.62629  0.04958  0.57730  1.0000
  H   H36       1.0  0.71571  0.29080  0.60900  1.0000
  N   N9        1.0  0.23301  0.26427  0.50507  1.0000
  N   N10       1.0  0.70001  0.76385  0.35154  1.0000
  N   N11       1.0  0.73286  0.73148  0.33835  1.0000
  N   N12       1.0  0.27467  0.22812  0.54511  1.0000
  N   N13       1.0  0.76605  0.27046  0.51158  1.0000
  N   N14       1.0  0.27199  0.76888  0.53041  1.0000
  N   N15       1.0  0.23036  0.73044  0.49416  1.0000
  N   N16       1.0  0.72606  0.23111  0.48001  1.0000
  C   C73       1.0  0.00369  0.35523  0.52314  1.0000
  C   C74       1.0  0.99516  0.52674  0.48380  1.0000
  H   H37       1.0  0.00585  0.31118  0.53342  1.0000
  C   C75       1.0  0.50147  0.85067  0.49920  1.0000
  H   H38       1.0  0.50229  0.80607  0.49984  1.0000
  C   C76       1.0  0.99280  0.64166  0.47765  1.0000
  C   C77       1.0  0.99764  0.46844  0.49548  1.0000
  H   H39       1.0  0.99140  0.68612  0.47436  1.0000
  C   C78       1.0  0.50134  0.13978  0.51216  1.0000
  H   H40       1.0  0.50190  0.18456  0.51661  1.0000
  C   C79       1.0  0.50031  0.02456  0.50234  1.0000
  C   C80       1.0  0.50017  0.96557  0.49929  1.0000
  C  Sn1       1.0  0.17419  0.34775  0.12903  1.0000
  C   C81       1.0  0.16565  0.29306  0.06063  1.0000
  C  Sn2       1.0  0.33784  0.30832  0.94187  1.0000
  C  Sn3       1.0  0.28978  0.33797  0.89030  1.0000
  C   C82       1.0  0.29833  0.39263  0.95866  1.0000
  C  Sn4       1.0  0.12613  0.37740  0.07746  1.0000
  O  Te1       1.0  0.23014  0.37256  0.24758  1.0000
  O  Te2       1.0  0.33039  0.25360  0.87531  1.0000
  O  Te3       1.0  0.23380  0.31311  0.77165  1.0000
  O  Te4       1.0  0.13359  0.43209  0.14398  1.0000
  Mg  Mg1       1.0  0.24576  0.23781  0.71737  1.0000
  Mg  Mg2       1.0  0.21819  0.44792  0.30186  1.0000
  C  Sn5       1.0  0.94197  0.69570  0.17109  1.0000
  C   C83       1.0  0.92623  0.65292  0.04968  1.0000
  C  Sn6       1.0  0.09769  0.68643  0.89900  1.0000
  C  Sn7       1.0  0.05626  0.72257  0.86900  1.0000
  C   C84       1.0  0.07200  0.76533  0.99035  1.0000
  C  Sn8       1.0  0.90053  0.73184  0.14109  1.0000
  O  Te5       1.0  0.99851  0.70231  0.32081  1.0000
  O  Te6       1.0  0.08297  0.64336  0.77954  1.0000
  O  Te7       1.0  0.99968  0.71592  0.71913  1.0000
  O  Te8       1.0  0.91526  0.77489  0.26049  1.0000
  Mg  Mg3       1.0  0.00050  0.65120  0.59509  1.0000
  Mg  Mg4       1.0  0.99772  0.76710  0.44494  1.0000
  C  Sn9       1.0  0.87712  0.29753  0.87426  1.0000
  C   C85       1.0  0.90477  0.34975  0.95966  1.0000
  C  Sn10      1.0  0.67887  0.33056  0.08810  1.0000
  C  Sn11      1.0  0.65261  0.29942  0.13218  1.0000
  C   C86       1.0  0.62499  0.24724  0.04683  1.0000
  C  Sn12      1.0  0.85085  0.26640  0.91834  1.0000
  O  Te9       1.0  0.87577  0.27664  0.74628  1.0000
  O  Te10      1.0  0.70675  0.38286  0.17163  1.0000
  O  Te11      1.0  0.65398  0.32036  0.26028  1.0000
  O  Te12      1.0  0.82301  0.21413  0.83486  1.0000
  Mg  Mg5       1.0  0.69712  0.39351  0.33719  1.0000
  Mg  Mg6       1.0  0.83264  0.20342  0.66935  1.0000
  C  Sn13      1.0  0.16320  0.64468  0.02791  1.0000
  C   C87       1.0  0.38827  0.73920  0.98822  1.0000
  C  Sn14      1.0  0.34934  0.77406  0.97374  1.0000
  C  Sn15      1.0  0.31236  0.75496  0.99956  1.0000
  C   C88       1.0  0.08731  0.66048  0.03925  1.0000
  C  Sn16      1.0  0.12622  0.62558  0.05373  1.0000
  O  Te13      1.0  0.20245  0.61054  0.04176  1.0000
  O  Te14      1.0  0.34742  0.82749  0.93390  1.0000
  O  Te15      1.0  0.27309  0.78916  0.98568  1.0000
  O  Te16      1.0  0.12816  0.57219  0.09358  1.0000
  Mg  Mg7       1.0  0.28667  0.85849  0.92911  1.0000
  Mg  Mg8       1.0  0.18891  0.54117  0.09848  1.0000
  C  Sn17      1.0  0.57552  0.77486  0.82736  1.0000
  C   C89       1.0  0.63311  0.78827  0.90529  1.0000
  C  Sn18      1.0  0.43567  0.79367  0.02339  1.0000
  C  Sn19      1.0  0.40788  0.82726  0.06455  1.0000
  C   C90       1.0  0.57811  0.85475  0.98666  1.0000
  C  Sn20      1.0  0.54774  0.80845  0.86852  1.0000
  O  Te17      1.0  0.54603  0.72838  0.70968  1.0000
  O  Te18      1.0  0.49320  0.80624  0.09959  1.0000
  O  Te19      1.0  0.43743  0.87377  0.18234  1.0000
  O  Te20      1.0  0.49024  0.79587  0.79236  1.0000
  Mg  Mg9       1.0  0.51516  0.87384  0.25210  1.0000
  Mg  Mg10      1.0  0.46825  0.72827  0.63990  1.0000
  C  Sn21      1.0  0.35668  0.14353  0.91625  1.0000
  C   C91       1.0  0.41406  0.15696  0.99218  1.0000
  C  Sn22      1.0  0.21745  0.16138  0.11373  1.0000
  C  Sn23      1.0  0.19072  0.19393  0.16045  1.0000
  C   C92       1.0  0.13338  0.18050  0.08456  1.0000
  C  Sn24      1.0  0.32995  0.17609  0.96297  1.0000
  O  Te21      1.0  0.32634  0.09805  0.79504  1.0000
  O  Te22      1.0  0.27476  0.17400  0.18784  1.0000
  O  Te23      1.0  0.22111  0.23945  0.28176  1.0000
  O  Te24      1.0  0.27268  0.16346  0.88890  1.0000
  Mg  Mg11      1.0  0.29814  0.24001  0.34676  1.0000
  Mg  Mg12      1.0  0.24927  0.09745  0.73004  1.0000
  C  Sn25      1.0  0.42509  0.77977  0.13540  1.0000
  C   C93       1.0  0.36869  0.78758  0.06871  1.0000
  C  Sn26      1.0  0.56575  0.86811  0.96101  1.0000
  C  Sn27      1.0  0.59191  0.90059  0.91900  1.0000
  C   C94       1.0  0.64827  0.89277  0.98565  1.0000
  C  Sn28      1.0  0.45126  0.81225  0.09339  1.0000
  O  Te25      1.0  0.45499  0.73991  0.24282  1.0000
  O  Te26      1.0  0.50943  0.87518  0.89594  1.0000
  O  Te27      1.0  0.56195  0.94047  0.81149  1.0000
  O  Te28      1.0  0.50753  0.80517  0.15842  1.0000
  Mg  Mg13      1.0  0.48630  0.93470  0.75484  1.0000
  Mg  Mg14      1.0  0.53069  0.74564  0.29946  1.0000
  C  Sn29      1.0  0.64943  0.14768  0.10904  1.0000
  C   C95       1.0  0.59405  0.15910  0.04544  1.0000
  C  Sn30      1.0  0.79427  0.24220  0.94553  1.0000
  C  Sn31      1.0  0.82262  0.27364  0.90832  1.0000
  C   C96       1.0  0.87796  0.26221  0.97188  1.0000
  C  Sn32      1.0  0.67779  0.17912  0.07183  1.0000
  O  Te29      1.0  0.67617  0.10530  0.20865  1.0000
  O  Te30      1.0  0.73891  0.25286  0.88343  1.0000
  O  Te31      1.0  0.79584  0.31605  0.80863  1.0000
  O  Te32      1.0  0.73311  0.16845  0.13389  1.0000
  Mg  Mg15      1.0  0.72035  0.31484  0.75332  1.0000
  Mg  Mg16      1.0  0.75170  0.10647  0.26393  1.0000
  C  Sn33      1.0  0.12861  0.30530  0.66596  1.0000
  C   C97       1.0  0.10081  0.34933  0.57436  1.0000
  C  Sn34      1.0  0.09922  0.35765  0.44471  1.0000
  C  Sn35      1.0  0.12594  0.32117  0.40574  1.0000
  C   C98       1.0  0.15371  0.27716  0.49729  1.0000
  C  Sn36      1.0  0.15534  0.26882  0.62698  1.0000
  O  Te33      1.0  0.12967  0.29777  0.79504  1.0000
  O  Te34      1.0  0.07118  0.40197  0.35494  1.0000
  O  Te35      1.0  0.12486  0.32873  0.27654  1.0000
  O  Te36      1.0  0.18334  0.22452  0.71671  1.0000
  Mg  Mg17      1.0  0.08134  0.39503  0.19031  1.0000
  Mg  Mg18      1.0  0.17318  0.23141  0.88130  1.0000
  C  Sn37      1.0  0.90008  0.71331  0.59580  1.0000
  C   C99       1.0  0.84124  0.71592  0.46590  1.0000
  C  Sn38      1.0  0.81163  0.67770  0.32434  1.0000
  C  Sn39      1.0  0.84145  0.63598  0.31239  1.0000
  C   C100      1.0  0.90025  0.63339  0.44223  1.0000
  C  Sn40      1.0  0.92990  0.67159  0.58384  1.0000
  O  Te37      1.0  0.92881  0.75194  0.73616  1.0000
  O  Te38      1.0  0.75281  0.68115  0.19607  1.0000
  O  Te39      1.0  0.81266  0.59734  0.17187  1.0000
  O  Te40      1.0  0.98868  0.66815  0.71207  1.0000
  Mg  Mg19      1.0  0.73258  0.61906  0.03010  1.0000
  Mg  Mg20      1.0  0.00894  0.73020  0.87811  1.0000
  C  Sn41      1.0  0.90115  0.35974  0.62915  1.0000
  C   C101      1.0  0.92878  0.34486  0.56826  1.0000
  C  Sn42      1.0  0.90704  0.29916  0.44916  1.0000
  C  Sn43      1.0  0.85661  0.26770  0.38960  1.0000
  C   C102      1.0  0.82900  0.28259  0.45046  1.0000
  C  Sn44      1.0  0.85072  0.32829  0.56959  1.0000
  O  Te41      1.0  0.92364  0.40559  0.74819  1.0000
  O  Te42      1.0  0.93543  0.28507  0.39020  1.0000
  O  Te43      1.0  0.83413  0.22182  0.27048  1.0000
  O  Te44      1.0  0.82235  0.34238  0.62853  1.0000
  Mg  Mg21      1.0  0.88813  0.21911  0.22829  1.0000
  Mg  Mg22      1.0  0.86960  0.40834  0.79036  1.0000
  C  Sn45      1.0  0.09750  0.71860  0.57132  1.0000
  C   C103      1.0  0.07123  0.66653  0.48165  1.0000
  C  Sn46      1.0  0.09338  0.63527  0.42086  1.0000
  C  Sn47      1.0  0.14285  0.65648  0.45039  1.0000
  C   C104      1.0  0.16910  0.70852  0.54003  1.0000
  C  Sn48      1.0  0.14696  0.73981  0.60085  1.0000
  O  Te45      1.0  0.07461  0.74913  0.63094  1.0000
  O  Te46      1.0  0.06637  0.58333  0.33149  1.0000
  O  Te47      1.0  0.16572  0.62590  0.39068  1.0000
  O  Te48      1.0  0.17396  0.79172  0.69019  1.0000
  Mg  Mg23      1.0  0.11371  0.55737  0.27582  1.0000
  Mg  Mg24      1.0  0.12667  0.81770  0.74599  1.0000
  C  Sn49      1.0  0.63176  0.84924  0.40313  1.0000
  C   C105      1.0  0.65762  0.80111  0.47241  1.0000
  C  Sn50      1.0  0.64013  0.77115  0.53992  1.0000
  C  Sn51      1.0  0.59585  0.78967  0.53806  1.0000
  C   C106      1.0  0.57000  0.83777  0.46879  1.0000
  C  Sn52      1.0  0.58747  0.86776  0.40127  1.0000
  O  Te49      1.0  0.64992  0.87853  0.33634  1.0000
  O  Te50      1.0  0.66664  0.72317  0.60854  1.0000
  O  Te51      1.0  0.57770  0.76033  0.60494  1.0000
  O  Te52      1.0  0.56098  0.91571  0.33266  1.0000
  Mg  Mg25      1.0  0.62692  0.69747  0.68425  1.0000
  Mg  Mg26      1.0  0.60065  0.94142  0.25685  1.0000
  C  Sn53      1.0  0.40500  0.21054  0.45785  1.0000
  C   C107      1.0  0.42871  0.16267  0.53297  1.0000
  C  Sn54      1.0  0.40620  0.13443  0.58990  1.0000
  C  Sn55      1.0  0.35900  0.15444  0.57127  1.0000
  C   C108      1.0  0.33531  0.20228  0.49617  1.0000
  C  Sn56      1.0  0.35780  0.23055  0.43922  1.0000
  O  Te53      1.0  0.42819  0.23811  0.40185  1.0000
  O  Te54      1.0  0.43063  0.08667  0.66464  1.0000
  O  Te55      1.0  0.33582  0.12682  0.62736  1.0000
  O  Te56      1.0  0.33338  0.27828  0.36450  1.0000
  Mg  Mg27      1.0  0.38391  0.06359  0.72083  1.0000
  Mg  Mg28      1.0  0.38005  0.30137  0.30819  1.0000
  C  Sn57      1.0  0.35875  0.85018  0.54943  1.0000
  C   C109      1.0  0.33511  0.79602  0.47620  1.0000
  C  Sn58      1.0  0.35935  0.76163  0.42747  1.0000
  C  Sn59      1.0  0.40826  0.78177  0.45255  1.0000
  C   C110      1.0  0.43187  0.83589  0.52577  1.0000
  C  Sn60      1.0  0.40766  0.87032  0.57451  1.0000
  O  Te57      1.0  0.33382  0.88384  0.59719  1.0000
  O  Te58      1.0  0.33495  0.70765  0.35446  1.0000
  O  Te59      1.0  0.43318  0.74806  0.40471  1.0000
  O  Te60      1.0  0.43204  0.92427  0.64751  1.0000
  Mg  Mg29      1.0  0.38440  0.67765  0.31048  1.0000
  Mg  Mg30      1.0  0.38264  0.95430  0.69161  1.0000
  C  Sn61      1.0  0.60093  0.21668  0.58436  1.0000
  C   C111      1.0  0.57469  0.16438  0.49660  1.0000
  C  Sn62      1.0  0.59478  0.13379  0.42864  1.0000
  C  Sn63      1.0  0.64212  0.15591  0.44890  1.0000
  C   C112      1.0  0.66834  0.20817  0.53663  1.0000
  C  Sn64      1.0  0.64827  0.23880  0.60462  1.0000
  O  Te61      1.0  0.58013  0.24653  0.65125  1.0000
  O  Te62      1.0  0.56784  0.08160  0.34136  1.0000
  O  Te63      1.0  0.66291  0.12600  0.38191  1.0000
  O  Te64      1.0  0.67520  0.29095  0.69187  1.0000
  Mg  Mg31      1.0  0.61189  0.05680  0.27339  1.0000
  Mg  Mg32      1.0  0.63120  0.31577  0.75996  1.0000
