data_image0
_chemical_formula_structural       C4H2C5H2C5H2C5H2C4H2C3H2C3H2C3H2N8C2HCHC2HCHC6H2C5H2C5H2C5H2C4H2C3H2C3H2C3H2N8C2HCHC2HCHC4Sn2C2HTe2HMgC2Sn2C2HTe2HMgC2Sn2C2HTe2HMgC2Sn2C2HTe2HMgC2Sn2C2HTe2HMgC2Sn2C2HTe2HMgC2Sn2C2HTe2HMgC2Sn2C2HTe2HMgC2Sn2C2HTe2HMgC2Sn2C2HTe2HMgC2Sn2C2HTe2HMgC2Sn2C2HTe2HMgC2Sn2C2HTe2HMgC2Sn2C2HTe2HMgC2Sn2C2HTe2HMgC2Sn2C2HTe2HMg
_chemical_formula_sum              "C144 H72 N16 Sn32 Te32 Mg16"
_cell_length_a       30.648
_cell_length_b       24.3635
_cell_length_c       10.7536
_cell_angle_alpha    95.344
_cell_angle_beta     130.484
_cell_angle_gamma    89.9583

_symmetry_space_group_name_H-M    'P1'
_space_group_IT_number       1

loop_
  _space_group_symop_operation_xyz
  'x, y, z'

loop_
  _atom_site_type_symbol
  _atom_site_label
  _atom_site_symmetry_multiplicity
  _atom_site_fract_x
  _atom_site_fract_y
  _atom_site_fract_z
  _atom_site_occupancy
  C   C1        1.0  0.03192  0.55946  0.95802  1.0000
  C   C2        1.0  0.05780  0.47003  0.90974  1.0000
  C   C3        1.0  0.03568  0.38507  0.98107  1.0000
  C   C4        1.0  0.19661  0.25360  0.00457  1.0000
  H   H1        1.0  0.07713  0.44577  0.86889  1.0000
  H   H2        1.0  0.18250  0.20989  0.95433  1.0000
  C   C5        1.0  0.53149  0.06197  0.96500  1.0000
  C   C6        1.0  0.95611  0.44414  0.98569  1.0000
  C   C7        1.0  0.91701  0.53175  0.98402  1.0000
  C   C8        1.0  0.96109  0.62039  0.99596  1.0000
  C   C9        1.0  0.81387  0.74952  0.04374  1.0000
  H   H3        1.0  0.88744  0.55428  0.98876  1.0000
  H   H4        1.0  0.83450  0.78557  0.13799  1.0000
  C   C10       1.0  0.46952  0.94520  0.03199  1.0000
  C   C11       1.0  0.95655  0.56168  0.98217  1.0000
  C   C12       1.0  0.91594  0.47557  0.98180  1.0000
  C   C13       1.0  0.95967  0.38638  0.00027  1.0000
  C   C14       1.0  0.80126  0.25720  0.99740  1.0000
  H   H5        1.0  0.88399  0.45436  0.97828  1.0000
  H   H6        1.0  0.79133  0.21381  0.94349  1.0000
  C   C15       1.0  0.47026  0.06298  0.04118  1.0000
  C   C16       1.0  0.03057  0.44199  0.95742  1.0000
  C   C17       1.0  0.05822  0.52618  0.90918  1.0000
  C   C18       1.0  0.03998  0.61838  0.98931  1.0000
  C   C19       1.0  0.20399  0.74678  0.01449  1.0000
  H   H7        1.0  0.07761  0.54591  0.86700  1.0000
  H   H8        1.0  0.19336  0.78922  0.98487  1.0000
  C   C20       1.0  0.53036  0.94420  0.95415  1.0000
  C   C21       1.0  0.55392  0.97374  0.89843  1.0000
  C   C22       1.0  0.53291  0.88608  0.96085  1.0000
  C   C23       1.0  0.68419  0.75346  0.93996  1.0000
  H   H9        1.0  0.57021  0.95055  0.84668  1.0000
  H   H10       1.0  0.66770  0.71102  0.87792  1.0000
  C   C24       1.0  0.44709  0.03359  0.09827  1.0000
  C   C25       1.0  0.46812  0.12114  0.03522  1.0000
  C   C26       1.0  0.31752  0.25497  0.05598  1.0000
  H   H11       1.0  0.43118  0.05695  0.15106  1.0000
  H   H12       1.0  0.33327  0.29805  0.11200  1.0000
  C   C27       1.0  0.44694  0.97726  0.09449  1.0000
  C   C28       1.0  0.46559  0.88627  0.01304  1.0000
  C   C29       1.0  0.31830  0.74899  0.03470  1.0000
  H   H13       1.0  0.43093  0.95644  0.14450  1.0000
  H   H14       1.0  0.33270  0.70834  0.07670  1.0000
  C   C30       1.0  0.55437  0.03007  0.90331  1.0000
  C   C31       1.0  0.53629  0.12089  0.98644  1.0000
  C   C32       1.0  0.69865  0.25723  0.02250  1.0000
  H   H15       1.0  0.57101  0.05109  0.85531  1.0000
  H   H16       1.0  0.68881  0.30010  0.99718  1.0000
  N   N1        1.0  0.24386  0.27450  0.04436  1.0000
  N   N2        1.0  0.73390  0.77306  0.99378  1.0000
  N   N3        1.0  0.75934  0.73580  0.95642  1.0000
  N   N4        1.0  0.26904  0.23521  0.01064  1.0000
  N   N5        1.0  0.77682  0.27745  0.05303  1.0000
  N   N6        1.0  0.27212  0.76573  0.00358  1.0000
  N   N7        1.0  0.24673  0.72698  0.03106  1.0000
  N   N8        1.0  0.74352  0.23827  0.05026  1.0000
  C   C33       1.0  0.00030  0.35929  0.00189  1.0000
  C   C34       1.0  0.99383  0.53120  0.96987  1.0000
  H   H17       1.0  0.00599  0.31637  0.02602  1.0000
  C   C35       1.0  0.49854  0.85893  0.98266  1.0000
  H   H18       1.0  0.49770  0.81414  0.97686  1.0000
  C   C36       1.0  0.00442  0.64671  0.00865  1.0000
  C   C37       1.0  0.99354  0.47235  0.97129  1.0000
  H   H19       1.0  0.01059  0.69154  0.03468  1.0000
  C   C38       1.0  0.50282  0.14835  0.01466  1.0000
  H   H20       1.0  0.50386  0.19317  0.02134  1.0000
  C   C39       1.0  0.50042  0.03308  0.99988  1.0000
  C   C40       1.0  0.49999  0.97402  0.99499  1.0000
  C   C41       1.0  0.03942  0.55746  0.50258  1.0000
  C   C42       1.0  0.08860  0.47302  0.54837  1.0000
  C   C43       1.0  0.04357  0.38210  0.52145  1.0000
  C   C44       1.0  0.20815  0.25152  0.56180  1.0000
  H   H21       1.0  0.12600  0.45286  0.58193  1.0000
  H   H22       1.0  0.22146  0.21654  0.63380  1.0000
  C   C45       1.0  0.54417  0.05510  0.51896  1.0000
  C   C46       1.0  0.95490  0.43857  0.48565  1.0000
  C   C47       1.0  0.90503  0.52276  0.43618  1.0000
  C   C48       1.0  0.94923  0.61278  0.45893  1.0000
  C   C49       1.0  0.78782  0.73445  0.46042  1.0000
  H   H23       1.0  0.86900  0.54360  0.41027  1.0000
  H   H24       1.0  0.80698  0.76128  0.57523  1.0000
  C   C50       1.0  0.45664  0.93495  0.48411  1.0000
  C   C51       1.0  0.94920  0.55458  0.45844  1.0000
  C   C52       1.0  0.90745  0.46722  0.44709  1.0000
  C   C53       1.0  0.96043  0.38156  0.50954  1.0000
  C   C54       1.0  0.79413  0.25030  0.46746  1.0000
  H   H25       1.0  0.87246  0.44408  0.42569  1.0000
  H   H26       1.0  0.78415  0.20736  0.41039  1.0000
  C   C55       1.0  0.45674  0.05283  0.48963  1.0000
  C   C56       1.0  0.04321  0.44044  0.51862  1.0000
  C   C57       1.0  0.08707  0.52886  0.54208  1.0000
  C   C58       1.0  0.03677  0.61547  0.49368  1.0000
  C   C59       1.0  0.20622  0.74868  0.55265  1.0000
  H   H27       1.0  0.12341  0.55251  0.57169  1.0000
  H   H28       1.0  0.22009  0.78956  0.62484  1.0000
  C   C60       1.0  0.54374  0.93743  0.51194  1.0000
  C   C61       1.0  0.58978  0.96986  0.54491  1.0000
  C   C62       1.0  0.54147  0.87863  0.49969  1.0000
  C   C63       1.0  0.68655  0.75071  0.43752  1.0000
  H   H29       1.0  0.62585  0.94913  0.57092  1.0000
  H   H30       1.0  0.70277  0.71406  0.50325  1.0000
  C   C64       1.0  0.41021  0.02024  0.45362  1.0000
  C   C65       1.0  0.45962  0.11164  0.50415  1.0000
  C   C66       1.0  0.29974  0.24167  0.48940  1.0000
  H   H31       1.0  0.37376  0.04084  0.42555  1.0000
  H   H32       1.0  0.28682  0.27746  0.42064  1.0000
  C   C67       1.0  0.41000  0.96397  0.45007  1.0000
  C   C68       1.0  0.46016  0.87703  0.49629  1.0000
  C   C69       1.0  0.29852  0.74828  0.48148  1.0000
  H   H33       1.0  0.37316  0.94049  0.41794  1.0000
  H   H34       1.0  0.28665  0.70571  0.42028  1.0000
  C   C70       1.0  0.59002  0.02608  0.54840  1.0000
  C   C71       1.0  0.54242  0.11335  0.51494  1.0000
  C   C72       1.0  0.70262  0.24926  0.54076  1.0000
  H   H35       1.0  0.62629  0.04958  0.57730  1.0000
  H   H36       1.0  0.71571  0.29080  0.60900  1.0000
  N   N9        1.0  0.23301  0.26427  0.50507  1.0000
  N   N10       1.0  0.70001  0.76385  0.35154  1.0000
  N   N11       1.0  0.73286  0.73148  0.33835  1.0000
  N   N12       1.0  0.27467  0.22812  0.54511  1.0000
  N   N13       1.0  0.76605  0.27046  0.51158  1.0000
  N   N14       1.0  0.27199  0.76888  0.53041  1.0000
  N   N15       1.0  0.23036  0.73044  0.49416  1.0000
  N   N16       1.0  0.72606  0.23111  0.48001  1.0000
  C   C73       1.0  0.00369  0.35523  0.52314  1.0000
  C   C74       1.0  0.99516  0.52674  0.48380  1.0000
  H   H37       1.0  0.00585  0.31118  0.53342  1.0000
  C   C75       1.0  0.50147  0.85067  0.49920  1.0000
  H   H38       1.0  0.50229  0.80607  0.49984  1.0000
  C   C76       1.0  0.99280  0.64166  0.47765  1.0000
  C   C77       1.0  0.99764  0.46844  0.49548  1.0000
  H   H39       1.0  0.99140  0.68612  0.47436  1.0000
  C   C78       1.0  0.50134  0.13978  0.51216  1.0000
  H   H40       1.0  0.50190  0.18456  0.51661  1.0000
  C   C79       1.0  0.50031  0.02456  0.50234  1.0000
  C   C80       1.0  0.50017  0.96557  0.49929  1.0000
  C   C81       1.0  0.08927  0.26455  0.92580  1.0000
  C   C82       1.0  0.14517  0.27990  0.99156  1.0000
  C  Sn1       1.0  0.94178  0.29279  0.06745  1.0000
  C  Sn2       1.0  0.90951  0.33183  0.07753  1.0000
  C   C83       1.0  0.85365  0.31605  0.01146  1.0000
  C   C84       1.0  0.05743  0.30303  0.93575  1.0000
  H   H41       1.0  0.07072  0.22282  0.86729  1.0000
  O  Te1       1.0  0.99766  0.30744  0.13245  1.0000
  O  Te2       1.0  0.93285  0.38586  0.15276  1.0000
  H   H42       1.0  0.01417  0.29114  0.88494  1.0000
  Mg  Mg1       1.0  0.01068  0.38604  0.22299  1.0000
  C   C85       1.0  0.94432  0.71012  0.15182  1.0000
  C   C86       1.0  0.92988  0.66363  0.04162  1.0000
  C  Sn3       1.0  0.09998  0.68668  0.91066  1.0000
  C  Sn4       1.0  0.05603  0.71601  0.88993  1.0000
  C   C87       1.0  0.84314  0.72160  0.00078  1.0000
  C   C88       1.0  0.90100  0.73909  0.13143  1.0000
  H   H43       1.0  0.98908  0.72367  0.25286  1.0000
  O  Te3       1.0  0.08631  0.64014  0.80173  1.0000
  O  Te4       1.0  0.99803  0.69909  0.76008  1.0000
  H   H44       1.0  0.91216  0.77510  0.21667  1.0000
  Mg  Mg2       1.0  0.00108  0.63321  0.64400  1.0000
  C   C89       1.0  0.89087  0.28666  0.91020  1.0000
  C   C90       1.0  0.91437  0.34103  0.98050  1.0000
  C  Sn5       1.0  0.67636  0.32909  0.07673  1.0000
  C  Sn6       1.0  0.64196  0.30302  0.10289  1.0000
  C   C91       1.0  0.61869  0.24859  0.03211  1.0000
  C   C92       1.0  0.85696  0.26090  0.93599  1.0000
  H   H45       1.0  0.89902  0.26452  0.83590  1.0000
  O  Te5       1.0  0.70015  0.38340  0.14600  1.0000
  O  Te6       1.0  0.63107  0.33100  0.19858  1.0000
  H   H46       1.0  0.83879  0.21879  0.88167  1.0000
  Mg  Mg3       1.0  0.67299  0.40439  0.26685  1.0000
  C   C93       1.0  0.10161  0.73533  0.96232  1.0000
  C   C94       1.0  0.92920  0.68234  0.02715  1.0000
  C  Sn7       1.0  0.94883  0.63077  0.08004  1.0000
  C  Sn8       1.0  0.91225  0.59063  0.06759  1.0000
  C   C95       1.0  0.85693  0.60311  0.00245  1.0000
  C   C96       1.0  0.06550  0.69575  0.94994  1.0000
  H   H47       1.0  0.08674  0.77535  0.92161  1.0000
  O  Te7       1.0  0.00426  0.61938  0.14456  1.0000
  O  Te8       1.0  0.93077  0.53875  0.11948  1.0000
  H   H48       1.0  0.02263  0.70509  0.89965  1.0000
  Mg  Mg4       1.0  0.00993  0.54279  0.19881  1.0000
  C   C97       1.0  0.64243  0.87261  0.04362  1.0000
  C   C98       1.0  0.81249  0.90126  0.96618  1.0000
  C  Sn9       1.0  0.78560  0.84880  0.88157  1.0000
  C  Sn10      1.0  0.81718  0.80792  0.87461  1.0000
  C   C99       1.0  0.87491  0.82058  0.95259  1.0000
  C   C100      1.0  0.67362  0.83231  0.03688  1.0000
  H   H49       1.0  0.66293  0.91332  0.10892  1.0000
  O  Te9       1.0  0.72790  0.83726  0.80483  1.0000
  O  Te10      1.0  0.79137  0.75515  0.79094  1.0000
  H   H50       1.0  0.71831  0.84177  0.09692  1.0000
  Mg  Mg5       1.0  0.71175  0.75933  0.70587  1.0000
  C   C101      1.0  0.42557  0.23924  0.14298  1.0000
  C   C102      1.0  0.36672  0.22874  0.05487  1.0000
  C  Sn11      1.0  0.56669  0.21804  0.96411  1.0000
  C  Sn12      1.0  0.59852  0.17626  0.96179  1.0000
  C   C103      1.0  0.42961  0.14627  0.05045  1.0000
  C   C104      1.0  0.45700  0.19805  0.14081  1.0000
  H   H51       1.0  0.44677  0.27929  0.21298  1.0000
  O  Te11      1.0  0.50787  0.20825  0.87673  1.0000
  O  Te12      1.0  0.57181  0.12432  0.87216  1.0000
  H   H52       1.0  0.50257  0.20616  0.20911  1.0000
  Mg  Mg6       1.0  0.49079  0.13089  0.77290  1.0000
  C   C105      1.0  0.42167  0.76932  0.09244  1.0000
  C   C106      1.0  0.36756  0.77876  0.04208  1.0000
  C  Sn13      1.0  0.56920  0.86756  0.97173  1.0000
  C  Sn14      1.0  0.59786  0.90664  0.95154  1.0000
  C   C107      1.0  0.42419  0.85589  0.00221  1.0000
  C   C108      1.0  0.44996  0.80784  0.07250  1.0000
  H   H53       1.0  0.44160  0.73212  0.14675  1.0000
  O  Te13      1.0  0.51513  0.87635  0.92215  1.0000
  O  Te14      1.0  0.57271  0.95485  0.88153  1.0000
  H   H54       1.0  0.49184  0.80052  0.11138  1.0000
  Mg  Mg7       1.0  0.49850  0.94830  0.83331  1.0000
  C   C109      1.0  0.58901  0.23750  0.92930  1.0000
  C   C110      1.0  0.41903  0.18909  0.01080  1.0000
  C  Sn15      1.0  0.44210  0.13980  0.07686  1.0000
  C  Sn16      1.0  0.40654  0.09732  0.06081  1.0000
  C   C111      1.0  0.57653  0.14612  0.97895  1.0000
  C   C112      1.0  0.55390  0.19561  0.91336  1.0000
  H   H55       1.0  0.57148  0.27578  0.87846  1.0000
  O  Te15      1.0  0.49994  0.13299  0.15796  1.0000
  O  Te16      1.0  0.42848  0.04764  0.12562  1.0000
  H   H56       1.0  0.50914  0.20140  0.85017  1.0000
  Mg  Mg8       1.0  0.50996  0.05792  0.22549  1.0000
  C   C113      1.0  0.12898  0.33735  0.41768  1.0000
  C   C114      1.0  0.16107  0.29654  0.51910  1.0000
  C  Sn17      1.0  0.15170  0.27900  0.62066  1.0000
  C  Sn18      1.0  0.10939  0.30282  0.62038  1.0000
  C   C115      1.0  0.07748  0.34359  0.51838  1.0000
  C   C116      1.0  0.08722  0.36085  0.41728  1.0000
  H   H57       1.0  0.13649  0.35068  0.33939  1.0000
  O  Te17      1.0  0.18416  0.23820  0.72128  1.0000
  O  Te18      1.0  0.09913  0.28605  0.72063  1.0000
  H   H58       1.0  0.06234  0.39242  0.33869  1.0000
  Mg  Mg9       1.0  0.15438  0.22912  0.83616  1.0000
  C   C117      1.0  0.89957  0.69952  0.62033  1.0000
  C   C118      1.0  0.84214  0.70739  0.48875  1.0000
  C  Sn19      1.0  0.81482  0.68041  0.33132  1.0000
  C  Sn20      1.0  0.84566  0.64492  0.30552  1.0000
  C   C119      1.0  0.90309  0.63730  0.43798  1.0000
  C   C120      1.0  0.93002  0.66451  0.59501  1.0000
  H   H59       1.0  0.92040  0.72055  0.74184  1.0000
  O  Te19      1.0  0.75742  0.68875  0.20122  1.0000
  O  Te20      1.0  0.81940  0.61744  0.14945  1.0000
  H   H60       1.0  0.97447  0.65838  0.69688  1.0000
  Mg  Mg10      1.0  0.74044  0.64213  0.01123  1.0000
  C   C121      1.0  0.89661  0.27867  0.42703  1.0000
  C   C122      1.0  0.91538  0.33455  0.48579  1.0000
  C  Sn21      1.0  0.89783  0.36500  0.56123  1.0000
  C  Sn22      1.0  0.86080  0.33890  0.57801  1.0000
  C   C123      1.0  0.84229  0.28296  0.51893  1.0000
  C   C124      1.0  0.86011  0.25289  0.44359  1.0000
  H   H61       1.0  0.91042  0.25539  0.36882  1.0000
  O  Te21      1.0  0.91697  0.42081  0.61920  1.0000
  O  Te22      1.0  0.84261  0.36835  0.65296  1.0000
  H   H62       1.0  0.84559  0.20961  0.39820  1.0000
  Mg  Mg11      1.0  0.88033  0.44347  0.71226  1.0000
  C   C125      1.0  0.13217  0.73250  0.62135  1.0000
  C   C126      1.0  0.15803  0.72065  0.55360  1.0000
  C  Sn23      1.0  0.14082  0.67207  0.44727  1.0000
  C  Sn24      1.0  0.09688  0.63475  0.40824  1.0000
  C   C127      1.0  0.07124  0.64701  0.47657  1.0000
  C   C128      1.0  0.08881  0.69573  0.58287  1.0000
  H   H63       1.0  0.14573  0.77021  0.70352  1.0000
  O  Te23      1.0  0.16713  0.66085  0.38072  1.0000
  O  Te24      1.0  0.07883  0.58592  0.30228  1.0000
  H   H64       1.0  0.06875  0.70491  0.63522  1.0000
  Mg  Mg12      1.0  0.12773  0.58894  0.24260  1.0000
  C   C129      1.0  0.61047  0.78629  0.57257  1.0000
  C   C130      1.0  0.58609  0.83566  0.51017  1.0000
  C  Sn25      1.0  0.59168  0.85851  0.40628  1.0000
  C  Sn26      1.0  0.62225  0.83134  0.36428  1.0000
  C   C131      1.0  0.64645  0.78196  0.42726  1.0000
  C   C132      1.0  0.64061  0.75946  0.53115  1.0000
  H   H65       1.0  0.60593  0.76887  0.65288  1.0000
  O  Te25      1.0  0.56708  0.90787  0.34507  1.0000
  O  Te26      1.0  0.62847  0.85327  0.26065  1.0000
  H   H66       1.0  0.65946  0.72122  0.57936  1.0000
  Mg  Mg13      1.0  0.58725  0.92145  0.20838  1.0000
  C   C133      1.0  0.37325  0.15091  0.60904  1.0000
  C   C134      1.0  0.35000  0.19953  0.53818  1.0000
  C  Sn27      1.0  0.36102  0.22047  0.44358  1.0000
  C  Sn28      1.0  0.39595  0.19212  0.41965  1.0000
  C   C135      1.0  0.41898  0.14350  0.49097  1.0000
  C   C136      1.0  0.40770  0.12292  0.58545  1.0000
  H   H67       1.0  0.36450  0.13497  0.68207  1.0000
  O  Te27      1.0  0.33747  0.26910  0.37372  1.0000
  O  Te28      1.0  0.40763  0.21213  0.32561  1.0000
  H   H68       1.0  0.42567  0.08526  0.64021  1.0000
  Mg  Mg14      1.0  0.36575  0.27998  0.25572  1.0000
  C   C137      1.0  0.39211  0.86485  0.59393  1.0000
  C   C138      1.0  0.41999  0.84895  0.53444  1.0000
  C  Sn29      1.0  0.40638  0.79676  0.44635  1.0000
  C  Sn30      1.0  0.36405  0.75988  0.41744  1.0000
  C   C139      1.0  0.33637  0.77619  0.47737  1.0000
  C   C140      1.0  0.35033  0.82851  0.56542  1.0000
  H   H69       1.0  0.40288  0.90534  0.66198  1.0000
  O  Te29      1.0  0.43467  0.78153  0.38783  1.0000
  O  Te30      1.0  0.34960  0.70748  0.32971  1.0000
  H   H70       1.0  0.32870  0.84082  0.61137  1.0000
  Mg  Mg15      1.0  0.40008  0.70572  0.27495  1.0000
  C   C141      1.0  0.62767  0.14996  0.41155  1.0000
  C   C142      1.0  0.65288  0.20306  0.49360  1.0000
  C  Sn31      1.0  0.64409  0.22841  0.59702  1.0000
  C  Sn32      1.0  0.60940  0.19996  0.61847  1.0000
  C   C143      1.0  0.58440  0.14683  0.53592  1.0000
  C   C144      1.0  0.59347  0.12186  0.43269  1.0000
  H   H71       1.0  0.63471  0.13062  0.33174  1.0000
  O  Te31      1.0  0.66958  0.28149  0.67802  1.0000
  O  Te32      1.0  0.59992  0.22432  0.72115  1.0000
  H   H72       1.0  0.57398  0.08073  0.36926  1.0000
  Mg  Mg16      1.0  0.64391  0.29731  0.80487  1.0000
