data_image0
_chemical_formula_structural       C10H6C5H2C5H2C11H6C4H2C9H6C9H6C9H6N8C2HCHC2HCHC6H2C5H2C11H6C5H2C10H6C9H6C3H2C3H2N8C2HCHC2HCHC4Sn2C2HTe2HMgC2Sn2C2HTe2HMgC2Sn2C2HTe2HMgC2Sn2C2HTe2HMgC2Sn2C2HTe2HMgC2Sn2C2HTe2HMgC2Sn2C2HTe2HMgC2Sn2C2HTe2HMg
_chemical_formula_sum              "C160 H88 N16 Sn16 Te16 Mg8"
_cell_length_a       30.648
_cell_length_b       24.3635
_cell_length_c       10.7536
_cell_angle_alpha    95.344
_cell_angle_beta     130.484
_cell_angle_gamma    89.9583

_symmetry_space_group_name_H-M    'P1'
_space_group_IT_number       1

loop_
  _space_group_symop_operation_xyz
  'x, y, z'

loop_
  _atom_site_type_symbol
  _atom_site_label
  _atom_site_symmetry_multiplicity
  _atom_site_fract_x
  _atom_site_fract_y
  _atom_site_fract_z
  _atom_site_occupancy
  C   C1        1.0  0.03192  0.55946  0.95802  1.0000
  C   C2        1.0  0.05780  0.47003  0.90974  1.0000
  C   C3        1.0  0.03568  0.38507  0.98107  1.0000
  C   C4        1.0  0.07800  0.35223  0.99033  1.0000
  C   C5        1.0  0.06370  0.29602  0.92424  1.0000
  C   C6        1.0  0.10372  0.26382  0.93751  1.0000
  C   C7        1.0  0.15915  0.28690  0.01297  1.0000
  C   C8        1.0  0.17402  0.34285  0.08151  1.0000
  C   C9        1.0  0.13442  0.37455  0.07168  1.0000
  C   C10       1.0  0.19661  0.25360  0.00457  1.0000
  H   H1        1.0  0.07713  0.44577  0.86889  1.0000
  H   H2        1.0  0.02028  0.27812  0.85880  1.0000
  H   H3        1.0  0.09175  0.22058  0.88452  1.0000
  H   H4        1.0  0.21693  0.36065  0.14116  1.0000
  H   H5        1.0  0.14704  0.41725  0.12887  1.0000
  H   H6        1.0  0.18250  0.20989  0.95433  1.0000
  C   C11       1.0  0.53149  0.06197  0.96500  1.0000
  C   C12       1.0  0.95611  0.44414  0.98569  1.0000
  C   C13       1.0  0.91701  0.53175  0.98402  1.0000
  C   C14       1.0  0.96109  0.62039  0.99596  1.0000
  C   C15       1.0  0.81387  0.74952  0.04374  1.0000
  H   H7        1.0  0.88744  0.55428  0.98876  1.0000
  H   H8        1.0  0.83450  0.78557  0.13799  1.0000
  C   C16       1.0  0.46952  0.94520  0.03199  1.0000
  C   C17       1.0  0.95655  0.56168  0.98217  1.0000
  C   C18       1.0  0.91594  0.47557  0.98180  1.0000
  C   C19       1.0  0.95967  0.38638  0.00027  1.0000
  C   C20       1.0  0.80126  0.25720  0.99740  1.0000
  H   H9        1.0  0.88399  0.45436  0.97828  1.0000
  H   H10       1.0  0.79133  0.21381  0.94349  1.0000
  C   C21       1.0  0.47026  0.06298  0.04118  1.0000
  C   C22       1.0  0.03057  0.44199  0.95742  1.0000
  C   C23       1.0  0.05822  0.52618  0.90918  1.0000
  C   C24       1.0  0.03998  0.61838  0.98931  1.0000
  C   C25       1.0  0.08422  0.65093  0.00474  1.0000
  C   C26       1.0  0.07599  0.70586  0.96608  1.0000
  C   C27       1.0  0.11655  0.73697  0.97729  1.0000
  C   C28       1.0  0.16704  0.71443  0.02477  1.0000
  C   C29       1.0  0.17716  0.66067  0.07159  1.0000
  C   C30       1.0  0.13708  0.63017  0.06398  1.0000
  C   C31       1.0  0.20399  0.74678  0.01449  1.0000
  H   H11       1.0  0.07761  0.54591  0.86700  1.0000
  H   H12       1.0  0.03674  0.72429  0.92360  1.0000
  H   H13       1.0  0.10872  0.77897  0.94447  1.0000
  H   H14       1.0  0.21683  0.64342  0.11318  1.0000
  H   H15       1.0  0.14676  0.58956  0.10612  1.0000
  H   H16       1.0  0.19336  0.78922  0.98487  1.0000
  C   C32       1.0  0.53036  0.94420  0.95415  1.0000
  C   C33       1.0  0.55392  0.97374  0.89843  1.0000
  C   C34       1.0  0.53291  0.88608  0.96085  1.0000
  C   C35       1.0  0.68419  0.75346  0.93996  1.0000
  H   H17       1.0  0.57021  0.95055  0.84668  1.0000
  H   H18       1.0  0.66770  0.71102  0.87792  1.0000
  C   C36       1.0  0.44709  0.03359  0.09827  1.0000
  C   C37       1.0  0.46812  0.12114  0.03522  1.0000
  C   C38       1.0  0.43021  0.15406  0.04666  1.0000
  C   C39       1.0  0.44822  0.20845  0.12827  1.0000
  C   C40       1.0  0.41044  0.24136  0.12485  1.0000
  C   C41       1.0  0.35372  0.22076  0.04404  1.0000
  C   C42       1.0  0.33569  0.16618  0.96360  1.0000
  C   C43       1.0  0.37310  0.13383  0.96419  1.0000
  C   C44       1.0  0.31752  0.25497  0.05598  1.0000
  H   H19       1.0  0.43118  0.05695  0.15106  1.0000
  H   H20       1.0  0.49250  0.22441  0.19673  1.0000
  H   H21       1.0  0.42507  0.28329  0.18868  1.0000
  H   H22       1.0  0.29196  0.15004  0.90077  1.0000
  H   H23       1.0  0.35809  0.09240  0.89740  1.0000
  H   H24       1.0  0.33327  0.29805  0.11200  1.0000
  C   C45       1.0  0.44694  0.97726  0.09449  1.0000
  C   C46       1.0  0.46559  0.88627  0.01304  1.0000
  C   C47       1.0  0.42814  0.85245  0.02237  1.0000
  C   C48       1.0  0.44475  0.80131  0.08628  1.0000
  C   C49       1.0  0.40796  0.76743  0.08487  1.0000
  C   C50       1.0  0.35370  0.78383  0.02354  1.0000
  C   C51       1.0  0.33687  0.83488  0.95951  1.0000
  C   C52       1.0  0.37307  0.86803  0.95730  1.0000
  C   C53       1.0  0.31830  0.74899  0.03470  1.0000
  H   H25       1.0  0.43093  0.95644  0.14450  1.0000
  H   H26       1.0  0.48741  0.78884  0.14070  1.0000
  H   H27       1.0  0.42158  0.72808  0.13492  1.0000
  H   H28       1.0  0.29485  0.84750  0.91099  1.0000
  H   H29       1.0  0.35845  0.90625  0.90154  1.0000
  H   H30       1.0  0.33270  0.70834  0.07670  1.0000
  C   C54       1.0  0.55437  0.03007  0.90331  1.0000
  C   C55       1.0  0.53629  0.12089  0.98644  1.0000
  C   C56       1.0  0.57661  0.15415  0.98703  1.0000
  C   C57       1.0  0.56370  0.20664  0.93107  1.0000
  C   C58       1.0  0.60431  0.24031  0.94797  1.0000
  C   C59       1.0  0.65860  0.22208  0.01524  1.0000
  C   C60       1.0  0.67127  0.16922  0.06824  1.0000
  C   C61       1.0  0.63154  0.13657  0.05702  1.0000
  C   C62       1.0  0.69865  0.25723  0.02250  1.0000
  H   H31       1.0  0.57101  0.05109  0.85531  1.0000
  H   H32       1.0  0.52115  0.22061  0.87203  1.0000
  H   H33       1.0  0.59371  0.28092  0.90516  1.0000
  H   H34       1.0  0.71298  0.15470  0.11986  1.0000
  H   H35       1.0  0.64323  0.09706  0.10606  1.0000
  H   H36       1.0  0.68881  0.30010  0.99718  1.0000
  N   N1        1.0  0.24386  0.27450  0.04436  1.0000
  N   N2        1.0  0.73390  0.77306  0.99378  1.0000
  N   N3        1.0  0.75934  0.73580  0.95642  1.0000
  N   N4        1.0  0.26904  0.23521  0.01064  1.0000
  N   N5        1.0  0.77682  0.27745  0.05303  1.0000
  N   N6        1.0  0.27212  0.76573  0.00358  1.0000
  N   N7        1.0  0.24673  0.72698  0.03106  1.0000
  N   N8        1.0  0.74352  0.23827  0.05026  1.0000
  C   C63       1.0  0.00030  0.35929  0.00189  1.0000
  C   C64       1.0  0.99383  0.53120  0.96987  1.0000
  H   H37       1.0  0.00599  0.31637  0.02602  1.0000
  C   C65       1.0  0.49854  0.85893  0.98266  1.0000
  H   H38       1.0  0.49770  0.81414  0.97686  1.0000
  C   C66       1.0  0.00442  0.64671  0.00865  1.0000
  C   C67       1.0  0.99354  0.47235  0.97129  1.0000
  H   H39       1.0  0.01059  0.69154  0.03468  1.0000
  C   C68       1.0  0.50282  0.14835  0.01466  1.0000
  H   H40       1.0  0.50386  0.19317  0.02134  1.0000
  C   C69       1.0  0.50042  0.03308  0.99988  1.0000
  C   C70       1.0  0.49999  0.97402  0.99499  1.0000
  C   C71       1.0  0.03942  0.55746  0.50258  1.0000
  C   C72       1.0  0.08860  0.47302  0.54837  1.0000
  C   C73       1.0  0.04357  0.38210  0.52145  1.0000
  C   C74       1.0  0.20815  0.25152  0.56180  1.0000
  H   H41       1.0  0.12600  0.45286  0.58193  1.0000
  H   H42       1.0  0.22146  0.21654  0.63380  1.0000
  C   C75       1.0  0.54417  0.05510  0.51896  1.0000
  C   C76       1.0  0.95490  0.43857  0.48565  1.0000
  C   C77       1.0  0.90503  0.52276  0.43618  1.0000
  C   C78       1.0  0.94923  0.61278  0.45893  1.0000
  C   C79       1.0  0.78782  0.73445  0.46042  1.0000
  H   H43       1.0  0.86900  0.54360  0.41027  1.0000
  H   H44       1.0  0.80698  0.76128  0.57523  1.0000
  C   C80       1.0  0.45664  0.93495  0.48411  1.0000
  C   C81       1.0  0.94920  0.55458  0.45844  1.0000
  C   C82       1.0  0.90745  0.46722  0.44709  1.0000
  C   C83       1.0  0.96043  0.38156  0.50954  1.0000
  C   C84       1.0  0.92056  0.34802  0.51056  1.0000
  C   C85       1.0  0.90392  0.29264  0.43665  1.0000
  C   C86       1.0  0.86430  0.26075  0.42810  1.0000
  C   C87       1.0  0.83864  0.28336  0.49015  1.0000
  C   C88       1.0  0.85697  0.33792  0.57099  1.0000
  C   C89       1.0  0.89772  0.36913  0.58325  1.0000
  C   C90       1.0  0.79413  0.25030  0.46746  1.0000
  H   H45       1.0  0.87246  0.44408  0.42569  1.0000
  H   H46       1.0  0.92013  0.27549  0.37772  1.0000
  H   H47       1.0  0.85050  0.21875  0.36512  1.0000
  H   H48       1.0  0.83897  0.35472  0.62509  1.0000
  H   H49       1.0  0.91298  0.41021  0.65204  1.0000
  H   H50       1.0  0.78415  0.20736  0.41039  1.0000
  C   C91       1.0  0.45674  0.05283  0.48963  1.0000
  C   C92       1.0  0.04321  0.44044  0.51862  1.0000
  C   C93       1.0  0.08707  0.52886  0.54208  1.0000
  C   C94       1.0  0.03677  0.61547  0.49368  1.0000
  C   C95       1.0  0.20622  0.74868  0.55265  1.0000
  H   H51       1.0  0.12341  0.55251  0.57169  1.0000
  H   H52       1.0  0.22009  0.78956  0.62484  1.0000
  C   C96       1.0  0.54374  0.93743  0.51194  1.0000
  C   C97       1.0  0.58978  0.96986  0.54491  1.0000
  C   C98       1.0  0.54147  0.87863  0.49969  1.0000
  C   C99       1.0  0.57941  0.84676  0.48542  1.0000
  C   C100      1.0  0.60268  0.79911  0.56467  1.0000
  C   C101      1.0  0.63737  0.76823  0.54862  1.0000
  C   C102      1.0  0.64943  0.78348  0.45008  1.0000
  C   C103      1.0  0.62547  0.83060  0.36781  1.0000
  C   C104      1.0  0.59147  0.86161  0.38587  1.0000
  C   C105      1.0  0.68655  0.75071  0.43752  1.0000
  H   H53       1.0  0.62585  0.94913  0.57092  1.0000
  H   H54       1.0  0.59464  0.78729  0.64347  1.0000
  H   H55       1.0  0.65667  0.73272  0.61637  1.0000
  H   H56       1.0  0.63367  0.84206  0.28880  1.0000
  H   H57       1.0  0.57239  0.89706  0.31830  1.0000
  H   H58       1.0  0.70277  0.71406  0.50325  1.0000
  C   C106      1.0  0.41021  0.02024  0.45362  1.0000
  C   C107      1.0  0.45962  0.11164  0.50415  1.0000
  C   C108      1.0  0.41996  0.14455  0.50803  1.0000
  C   C109      1.0  0.39940  0.19166  0.42418  1.0000
  C   C110      1.0  0.36205  0.22368  0.42482  1.0000
  C   C111      1.0  0.34310  0.20955  0.50772  1.0000
  C   C112      1.0  0.36525  0.16370  0.59764  1.0000
  C   C113      1.0  0.40307  0.13200  0.59792  1.0000
  C   C114      1.0  0.29974  0.24167  0.48940  1.0000
  H   H59       1.0  0.37376  0.04084  0.42555  1.0000
  H   H60       1.0  0.41142  0.20179  0.35318  1.0000
  H   H61       1.0  0.34528  0.25910  0.35581  1.0000
  H   H62       1.0  0.35227  0.15378  0.66669  1.0000
  H   H63       1.0  0.42083  0.09754  0.67070  1.0000
  H   H64       1.0  0.28682  0.27746  0.42064  1.0000
  C   C115      1.0  0.41000  0.96397  0.45007  1.0000
  C   C116      1.0  0.46016  0.87703  0.49629  1.0000
  C   C117      1.0  0.29852  0.74828  0.48148  1.0000
  H   H65       1.0  0.37316  0.94049  0.41794  1.0000
  H   H66       1.0  0.28665  0.70571  0.42028  1.0000
  C   C118      1.0  0.59002  0.02608  0.54840  1.0000
  C   C119      1.0  0.54242  0.11335  0.51494  1.0000
  C   C120      1.0  0.70262  0.24926  0.54076  1.0000
  H   H67       1.0  0.62629  0.04958  0.57730  1.0000
  H   H68       1.0  0.71571  0.29080  0.60900  1.0000
  N   N9        1.0  0.23301  0.26427  0.50507  1.0000
  N   N10       1.0  0.70001  0.76385  0.35154  1.0000
  N   N11       1.0  0.73286  0.73148  0.33835  1.0000
  N   N12       1.0  0.27467  0.22812  0.54511  1.0000
  N   N13       1.0  0.76605  0.27046  0.51158  1.0000
  N   N14       1.0  0.27199  0.76888  0.53041  1.0000
  N   N15       1.0  0.23036  0.73044  0.49416  1.0000
  N   N16       1.0  0.72606  0.23111  0.48001  1.0000
  C   C121      1.0  0.00369  0.35523  0.52314  1.0000
  C   C122      1.0  0.99516  0.52674  0.48380  1.0000
  H   H69       1.0  0.00585  0.31118  0.53342  1.0000
  C   C123      1.0  0.50147  0.85067  0.49920  1.0000
  H   H70       1.0  0.50229  0.80607  0.49984  1.0000
  C   C124      1.0  0.99280  0.64166  0.47765  1.0000
  C   C125      1.0  0.99764  0.46844  0.49548  1.0000
  H   H71       1.0  0.99140  0.68612  0.47436  1.0000
  C   C126      1.0  0.50134  0.13978  0.51216  1.0000
  H   H72       1.0  0.50190  0.18456  0.51661  1.0000
  C   C127      1.0  0.50031  0.02456  0.50234  1.0000
  C   C128      1.0  0.50017  0.96557  0.49929  1.0000
  C   C129      1.0  0.55629  0.78491  0.85893  1.0000
  C   C130      1.0  0.56635  0.83858  0.93544  1.0000
  C  Sn1       1.0  0.39164  0.82739  0.02055  1.0000
  C  Sn2       1.0  0.43535  0.80280  0.02898  1.0000
  C   C131      1.0  0.65262  0.78999  0.95193  1.0000
  C   C132      1.0  0.59937  0.76063  0.86713  1.0000
  H   H73       1.0  0.51508  0.76220  0.79324  1.0000
  O  Te1       1.0  0.40098  0.88097  0.09634  1.0000
  O  Te2       1.0  0.48877  0.83157  0.11318  1.0000
  H   H74       1.0  0.59158  0.71908  0.80782  1.0000
  Mg  Mg1       1.0  0.48088  0.90348  0.19653  1.0000
  C   C133      1.0  0.92466  0.72494  0.16197  1.0000
  C   C134      1.0  0.86470  0.72457  0.04836  1.0000
  C  Sn3       1.0  0.05998  0.72653  0.90807  1.0000
  C  Sn4       1.0  0.08816  0.68727  0.88137  1.0000
  C   C135      1.0  0.14817  0.68796  0.99582  1.0000
  C   C136      1.0  0.95250  0.68622  0.13576  1.0000
  H   H75       1.0  0.94950  0.75522  0.27029  1.0000
  O  Te3       1.0  0.00010  0.72675  0.79578  1.0000
  O  Te4       1.0  0.05673  0.64787  0.74223  1.0000
  H   H76       1.0  0.99892  0.68647  0.22376  1.0000
  Mg  Mg2       1.0  0.97606  0.66486  0.62481  1.0000
  C   C137      1.0  0.10453  0.63457  0.39844  1.0000
  C   C138      1.0  0.08427  0.64301  0.48299  1.0000
  C  Sn5       1.0  0.10208  0.69122  0.59110  1.0000
  C  Sn6       1.0  0.14088  0.73168  0.61471  1.0000
  C   C139      1.0  0.16087  0.72287  0.52945  1.0000
  C   C140      1.0  0.14279  0.67446  0.42160  1.0000
  H   H77       1.0  0.09052  0.59714  0.31492  1.0000
  O  Te5       1.0  0.08143  0.69898  0.67464  1.0000
  O  Te6       1.0  0.15936  0.78025  0.72198  1.0000
  H   H78       1.0  0.15846  0.66796  0.35608  1.0000
  Mg  Mg3       1.0  0.11916  0.77191  0.80776  1.0000
  C   C141      1.0  0.63485  0.23115  0.62940  1.0000
  C   C142      1.0  0.65804  0.22010  0.55362  1.0000
  C  Sn7       1.0  0.64008  0.17150  0.44674  1.0000
  C  Sn8       1.0  0.59810  0.13334  0.41535  1.0000
  C   C143      1.0  0.57513  0.14479  0.49168  1.0000
  C   C144      1.0  0.59342  0.19354  0.59846  1.0000
  H   H79       1.0  0.64897  0.26888  0.71195  1.0000
  O  Te7       1.0  0.66371  0.16111  0.37210  1.0000
  O  Te8       1.0  0.57936  0.08446  0.30901  1.0000
  H   H80       1.0  0.57543  0.20209  0.65704  1.0000
  Mg  Mg4       1.0  0.62435  0.08878  0.23681  1.0000
  C   C145      1.0  0.39211  0.86485  0.59393  1.0000
  C   C146      1.0  0.41999  0.84895  0.53444  1.0000
  C  Sn9       1.0  0.40638  0.79676  0.44635  1.0000
  C  Sn10      1.0  0.36405  0.75988  0.41744  1.0000
  C   C147      1.0  0.33637  0.77619  0.47737  1.0000
  C   C148      1.0  0.35033  0.82851  0.56542  1.0000
  H   H81       1.0  0.40288  0.90534  0.66198  1.0000
  O  Te9       1.0  0.43467  0.78153  0.38783  1.0000
  O  Te10      1.0  0.34960  0.70748  0.32971  1.0000
  H   H82       1.0  0.32870  0.84082  0.61137  1.0000
  Mg  Mg5       1.0  0.40008  0.70572  0.27495  1.0000
  C   C149      1.0  0.92132  0.68593  0.61740  1.0000
  C   C150      1.0  0.91085  0.64998  0.49000  1.0000
  C  Sn11      1.0  0.85603  0.64298  0.33412  1.0000
  C  Sn12      1.0  0.81095  0.67259  0.30562  1.0000
  C   C151      1.0  0.82187  0.70848  0.43386  1.0000
  C   C152      1.0  0.87689  0.71516  0.58938  1.0000
  H   H83       1.0  0.96389  0.69112  0.73771  1.0000
  O  Te11      1.0  0.84631  0.60689  0.20823  1.0000
  O  Te12      1.0  0.75576  0.66639  0.15099  1.0000
  H   H84       1.0  0.88499  0.74302  0.68797  1.0000
  Mg  Mg6       1.0  0.76381  0.61238  0.01877  1.0000
  C   C153      1.0  0.87716  0.35501  0.11757  1.0000
  C   C154      1.0  0.84402  0.30600  0.01836  1.0000
  C  Sn13      1.0  0.08073  0.31866  0.91822  1.0000
  C  Sn14      1.0  0.12367  0.33998  0.91769  1.0000
  C   C155      1.0  0.92884  0.34812  0.01748  1.0000
  C   C156      1.0  0.91954  0.37605  0.11717  1.0000
  H   H85       1.0  0.86998  0.37660  0.19477  1.0000
  O  Te13      1.0  0.04722  0.26976  0.81981  1.0000
  O  Te14      1.0  0.13351  0.31259  0.81883  1.0000
  H   H86       1.0  0.94523  0.41398  0.19405  1.0000
  Mg  Mg7       1.0  0.07679  0.24744  0.70617  1.0000
  C   C157      1.0  0.13844  0.27586  0.64193  1.0000
  C   C158      1.0  0.15585  0.27629  0.54986  1.0000
  C  Sn15      1.0  0.13778  0.31621  0.44311  1.0000
  C  Sn16      1.0  0.10162  0.35640  0.42856  1.0000
  C   C159      1.0  0.08447  0.35564  0.52129  1.0000
  C   C160      1.0  0.10280  0.31550  0.62770  1.0000
  H   H87       1.0  0.15265  0.24482  0.72433  1.0000
  O  Te15      1.0  0.15556  0.31604  0.35199  1.0000
  O  Te16      1.0  0.08293  0.39678  0.32284  1.0000
  H   H88       1.0  0.08934  0.31519  0.69905  1.0000
  Mg  Mg8       1.0  0.11871  0.37945  0.22451  1.0000
