data_image0
_chemical_formula_structural       C13H8NC7H4NC13H8NC7H4NC4H2NC4H2NC10H6NC4H2NC2HC2HC2HC2HC13H8NC7H4NC7H4NC7H4NC13H8NC7H4NC7H4NC13H8NC2HC2HC2HC2HC2Sn2C2HTe2HMgC2Sn2C2HTe2HMgC2Sn2C2HTe2HMgC2Sn2C2HTe2HMgC2Sn2C2HTe2HMgC2Sn2C2HTe2HMgC2Sn2C2HTe2HMgC2Sn2C2HTe2HMgC2Sn2C2HTe2HMgC2Sn2C2HTe2HMgC2Sn2C2HTe2HMgC2Sn2C2HTe2HMg
_chemical_formula_sum              "C200 H112 N16 Sn24 Te24 Mg12"
_cell_length_a       34.5425
_cell_length_b       33.9849
_cell_length_c       8.95192
_cell_angle_alpha    89.061
_cell_angle_beta     89.8422
_cell_angle_gamma    89.9582

_symmetry_space_group_name_H-M    'P1'
_space_group_IT_number       1

loop_
  _space_group_symop_operation_xyz
  'x, y, z'

loop_
  _atom_site_type_symbol
  _atom_site_label
  _atom_site_symmetry_multiplicity
  _atom_site_fract_x
  _atom_site_fract_y
  _atom_site_fract_z
  _atom_site_occupancy
  C   C1        1.0  0.46671  0.95854  0.50690  1.0000
  C   C2        1.0  0.43050  0.02004  0.48901  1.0000
  C   C3        1.0  0.46436  0.08446  0.51274  1.0000
  C   C4        1.0  0.42801  0.10708  0.52637  1.0000
  C   C5        1.0  0.39862  0.09580  0.62742  1.0000
  C   C6        1.0  0.36486  0.11794  0.63903  1.0000
  C   C7        1.0  0.35869  0.15129  0.54676  1.0000
  C   C8        1.0  0.38860  0.16339  0.44904  1.0000
  C   C9        1.0  0.42281  0.14201  0.44083  1.0000
  C   C10       1.0  0.32188  0.17233  0.55422  1.0000
  C   C11       1.0  0.78267  0.27501  0.44072  1.0000
  C   C12       1.0  0.77904  0.24557  0.33255  1.0000
  C   C13       1.0  0.71953  0.25567  0.53928  1.0000
  H   H1        1.0  0.40316  0.03547  0.47570  1.0000
  H   H2        1.0  0.40291  0.07018  0.70032  1.0000
  H   H3        1.0  0.34305  0.10993  0.72187  1.0000
  H   H4        1.0  0.38431  0.18965  0.37935  1.0000
  H   H5        1.0  0.44559  0.15144  0.36366  1.0000
  H   H6        1.0  0.30426  0.16688  0.65370  1.0000
  H   H7        1.0  0.80239  0.24237  0.25187  1.0000
  H   H8        1.0  0.69618  0.25910  0.62007  1.0000
  N   N1        1.0  0.31183  0.19638  0.44786  1.0000
  C   C14       1.0  0.96527  0.45958  0.49903  1.0000
  C   C15       1.0  0.93116  0.52266  0.48593  1.0000
  C   C16       1.0  0.96729  0.58603  0.51069  1.0000
  C   C17       1.0  0.82816  0.67963  0.51805  1.0000
  C   C18       1.0  0.28984  0.76994  0.43816  1.0000
  C   C19       1.0  0.29078  0.73398  0.36155  1.0000
  C   C20       1.0  0.22135  0.75851  0.49197  1.0000
  H   H9        1.0  0.90431  0.53896  0.47250  1.0000
  H   H10       1.0  0.81210  0.67799  0.62312  1.0000
  H   H11       1.0  0.31814  0.72529  0.31037  1.0000
  H   H12       1.0  0.19406  0.76744  0.54368  1.0000
  N   N2        1.0  0.81491  0.69945  0.40410  1.0000
  C   C21       1.0  0.53691  0.04435  0.50091  1.0000
  C   C22       1.0  0.57333  0.98278  0.49130  1.0000
  C   C23       1.0  0.53899  0.91795  0.51822  1.0000
  C   C24       1.0  0.57443  0.89345  0.52410  1.0000
  C   C25       1.0  0.60580  0.90168  0.61928  1.0000
  C   C26       1.0  0.63778  0.87684  0.62489  1.0000
  C   C27       1.0  0.64010  0.84362  0.53415  1.0000
  C   C28       1.0  0.60851  0.83469  0.44113  1.0000
  C   C29       1.0  0.57623  0.85892  0.43794  1.0000
  C   C30       1.0  0.67454  0.81887  0.53831  1.0000
  C   C31       1.0  0.22270  0.72262  0.41596  1.0000
  C   C32       1.0  0.25781  0.71089  0.34894  1.0000
  C   C33       1.0  0.25422  0.78217  0.50132  1.0000
  H   H13       1.0  0.60106  0.96791  0.48259  1.0000
  H   H14       1.0  0.60382  0.92639  0.69506  1.0000
  H   H15       1.0  0.66119  0.88251  0.70296  1.0000
  H   H16       1.0  0.61018  0.80865  0.37214  1.0000
  H   H17       1.0  0.55210  0.85188  0.36446  1.0000
  H   H18       1.0  0.69173  0.81967  0.64064  1.0000
  H   H19       1.0  0.25880  0.68360  0.28707  1.0000
  H   H20       1.0  0.25196  0.81012  0.55889  1.0000
  N   N3        1.0  0.68328  0.79659  0.42821  1.0000
  C   C34       1.0  0.03820  0.54337  0.50795  1.0000
  C   C35       1.0  0.07261  0.48102  0.49160  1.0000
  C   C36       1.0  0.03671  0.41728  0.51107  1.0000
  C   C37       1.0  0.17448  0.32097  0.52733  1.0000
  C   C38       1.0  0.71661  0.22590  0.43185  1.0000
  C   C39       1.0  0.74657  0.22152  0.32711  1.0000
  C   C40       1.0  0.75187  0.28012  0.54252  1.0000
  H   H21       1.0  0.09958  0.46507  0.47823  1.0000
  H   H22       1.0  0.19197  0.32248  0.62908  1.0000
  H   H23       1.0  0.74437  0.19906  0.24274  1.0000
  H   H24       1.0  0.75310  0.30254  0.62761  1.0000
  N   N4        1.0  0.18438  0.29937  0.41626  1.0000
  C   C41       1.0  0.46505  0.04269  0.50442  1.0000
  C   C42       1.0  0.43137  0.97989  0.48922  1.0000
  C   C43       1.0  0.46756  0.91674  0.51766  1.0000
  C   C44       1.0  0.33100  0.81849  0.53502  1.0000
  H   H25       1.0  0.40467  0.96355  0.47559  1.0000
  H   H26       1.0  0.31064  0.82467  0.62567  1.0000
  N   N5        1.0  0.32451  0.79154  0.43776  1.0000
  C   C45       1.0  0.96633  0.54422  0.50399  1.0000
  C   C46       1.0  0.93070  0.48246  0.48263  1.0000
  C   C47       1.0  0.96521  0.41749  0.50328  1.0000
  C   C48       1.0  0.82604  0.32227  0.53525  1.0000
  H   H27       1.0  0.90344  0.46738  0.46424  1.0000
  H   H28       1.0  0.80699  0.32869  0.62952  1.0000
  N   N6        1.0  0.81738  0.29666  0.43552  1.0000
  C   C49       1.0  0.53878  0.95989  0.50784  1.0000
  C   C50       1.0  0.57238  0.02304  0.48640  1.0000
  C   C51       1.0  0.53539  0.08620  0.50690  1.0000
  C   C52       1.0  0.57071  0.11048  0.51519  1.0000
  C   C53       1.0  0.60108  0.09996  0.61272  1.0000
  C   C54       1.0  0.63429  0.12291  0.62142  1.0000
  C   C55       1.0  0.63816  0.15706  0.53176  1.0000
  C   C56       1.0  0.60740  0.16849  0.43785  1.0000
  C   C57       1.0  0.57412  0.14576  0.43037  1.0000
  C   C58       1.0  0.67411  0.17960  0.53378  1.0000
  H   H29       1.0  0.59906  0.03956  0.47169  1.0000
  H   H30       1.0  0.59763  0.07422  0.68558  1.0000
  H   H31       1.0  0.65717  0.11478  0.69968  1.0000
  H   H32       1.0  0.61085  0.19501  0.36909  1.0000
  H   H33       1.0  0.55109  0.15427  0.35332  1.0000
  H   H34       1.0  0.69287  0.17595  0.63153  1.0000
  N   N7        1.0  0.68346  0.20243  0.42211  1.0000
  C   C59       1.0  0.03742  0.45913  0.50540  1.0000
  C   C60       1.0  0.07307  0.52121  0.49228  1.0000
  C   C61       1.0  0.03847  0.58515  0.51536  1.0000
  C   C62       1.0  0.17344  0.68513  0.52058  1.0000
  H   H35       1.0  0.10018  0.53702  0.47827  1.0000
  H   H36       1.0  0.18547  0.69049  0.63104  1.0000
  N   N8        1.0  0.18966  0.69878  0.40123  1.0000
  C   C63       1.0  0.49941  0.10509  0.51153  1.0000
  C   C64       1.0  0.50234  0.98026  0.50638  1.0000
  H   H37       1.0  0.49874  0.13702  0.52237  1.0000
  C   C65       1.0  0.00303  0.60521  0.51730  1.0000
  C   C66       1.0  0.00149  0.48039  0.50444  1.0000
  H   H38       1.0  0.00318  0.63710  0.52806  1.0000
  C   C67       1.0  0.50352  0.89790  0.52340  1.0000
  C   C68       1.0  0.50147  0.02247  0.50423  1.0000
  H   H39       1.0  0.50390  0.86602  0.53724  1.0000
  C   C69       1.0  0.00091  0.39799  0.50861  1.0000
  C   C70       1.0  0.00198  0.52264  0.50679  1.0000
  H   H40       1.0  0.00101  0.36607  0.51846  1.0000
  C   C71       1.0  0.46280  0.95825  0.00959  1.0000
  C   C72       1.0  0.42693  0.02030  0.99705  1.0000
  C   C73       1.0  0.46179  0.08445  0.01686  1.0000
  C   C74       1.0  0.42629  0.10873  0.01869  1.0000
  C   C75       1.0  0.39472  0.10090  0.11416  1.0000
  C   C76       1.0  0.36294  0.12609  0.11731  1.0000
  C   C77       1.0  0.36106  0.15937  0.02230  1.0000
  C   C78       1.0  0.39275  0.16750  0.92723  1.0000
  C   C79       1.0  0.42461  0.14273  0.92621  1.0000
  C   C80       1.0  0.32720  0.18515  0.02318  1.0000
  C   C81       1.0  0.78371  0.27079  0.93209  1.0000
  C   C82       1.0  0.78498  0.23469  0.85654  1.0000
  C   C83       1.0  0.71548  0.25895  0.98588  1.0000
  H   H41       1.0  0.39961  0.03584  0.98504  1.0000
  H   H42       1.0  0.39627  0.07585  0.19118  1.0000
  H   H43       1.0  0.33955  0.12052  0.19641  1.0000
  H   H44       1.0  0.39132  0.19323  0.85365  1.0000
  H   H45       1.0  0.44822  0.14855  0.84865  1.0000
  H   H46       1.0  0.30917  0.18431  0.12395  1.0000
  H   H47       1.0  0.81201  0.22649  0.80259  1.0000
  H   H48       1.0  0.68813  0.26789  0.03593  1.0000
  N   N9        1.0  0.31988  0.20858  0.91259  1.0000
  C   C84       1.0  0.96216  0.45787  0.00923  1.0000
  C   C85       1.0  0.92752  0.52064  0.00282  1.0000
  C   C86       1.0  0.96324  0.58421  0.02364  1.0000
  C   C87       1.0  0.82617  0.68142  0.02444  1.0000
  C   C88       1.0  0.28209  0.77394  0.94664  1.0000
  C   C89       1.0  0.28012  0.74344  0.84148  1.0000
  C   C90       1.0  0.21786  0.75494  0.03553  1.0000
  H   H49       1.0  0.90043  0.53662  0.99184  1.0000
  H   H50       1.0  0.81089  0.68411  0.13086  1.0000
  H   H51       1.0  0.30457  0.73962  0.76606  1.0000
  H   H52       1.0  0.19380  0.75845  0.11294  1.0000
  N   N10       1.0  0.81338  0.69848  0.90486  1.0000
  C   C91       1.0  0.53376  0.04329  0.01004  1.0000
  C   C92       1.0  0.56960  0.98145  0.99500  1.0000
  C   C93       1.0  0.53506  0.91695  0.01507  1.0000
  C   C94       1.0  0.67354  0.82090  0.02765  1.0000
  C   C95       1.0  0.21600  0.72491  0.92850  1.0000
  C   C96       1.0  0.24763  0.71953  0.83133  1.0000
  C   C97       1.0  0.25018  0.77921  0.04353  1.0000
  H   H53       1.0  0.59695  0.96610  0.98101  1.0000
  H   H54       1.0  0.69236  0.82528  0.12430  1.0000
  H   H55       1.0  0.24665  0.69636  0.74857  1.0000
  H   H56       1.0  0.25043  0.80204  0.12752  1.0000
  N   N11       1.0  0.68145  0.79576  0.92459  1.0000
  C   C98       1.0  0.03466  0.54161  0.01267  1.0000
  C   C99       1.0  0.06935  0.47912  0.99564  1.0000
  C   C100      1.0  0.03349  0.41535  0.01191  1.0000
  C   C101      1.0  0.17251  0.32049  0.02404  1.0000
  C   C102      1.0  0.71727  0.22255  0.91303  1.0000
  C   C103      1.0  0.75242  0.21069  0.84718  1.0000
  C   C104      1.0  0.74818  0.28281  0.99545  1.0000
  H   H57       1.0  0.09625  0.46301  0.98085  1.0000
  H   H58       1.0  0.18615  0.31604  0.13315  1.0000
  H   H59       1.0  0.75386  0.18324  0.78668  1.0000
  H   H60       1.0  0.74587  0.31057  0.05409  1.0000
  N   N12       1.0  0.18778  0.30664  0.90449  1.0000
  C   C105      1.0  0.46172  0.04267  0.01119  1.0000
  C   C106      1.0  0.42754  0.98011  0.99622  1.0000
  C   C107      1.0  0.46359  0.91636  0.01462  1.0000
  C   C108      1.0  0.42793  0.89222  0.02160  1.0000
  C   C109      1.0  0.39757  0.90078  0.12141  1.0000
  C   C110      1.0  0.36478  0.87715  0.12911  1.0000
  C   C111      1.0  0.36067  0.84444  0.03589  1.0000
  C   C112      1.0  0.39109  0.83554  0.93641  1.0000
  C   C113      1.0  0.42416  0.85880  0.93069  1.0000
  C   C114      1.0  0.32538  0.82082  0.04473  1.0000
  C   C115      1.0  0.78081  0.72303  0.91596  1.0000
  C   C116      1.0  0.74780  0.71513  0.82984  1.0000
  C   C117      1.0  0.74909  0.78135  0.01221  1.0000
  H   H61       1.0  0.40060  0.96416  0.98295  1.0000
  H   H62       1.0  0.40059  0.92548  0.19668  1.0000
  H   H63       1.0  0.34207  0.88373  0.20984  1.0000
  H   H64       1.0  0.38785  0.81045  0.86296  1.0000
  H   H65       1.0  0.44704  0.85222  0.85044  1.0000
  H   H66       1.0  0.30783  0.82469  0.14548  1.0000
  H   H67       1.0  0.74759  0.68975  0.75725  1.0000
  H   H68       1.0  0.75029  0.80714  0.08265  1.0000
  N   N13       1.0  0.31608  0.79667  0.94099  1.0000
  C   C118      1.0  0.96263  0.54236  0.01721  1.0000
  C   C119      1.0  0.92732  0.48049  0.99866  1.0000
  C   C120      1.0  0.96216  0.41594  0.00791  1.0000
  C   C121      1.0  0.82500  0.31891  0.03148  1.0000
  C   C122      1.0  0.28634  0.23206  0.91475  1.0000
  C   C123      1.0  0.28921  0.27121  0.86031  1.0000
  C   C124      1.0  0.21789  0.24312  0.96390  1.0000
  H   H69       1.0  0.90015  0.46506  0.98393  1.0000
  H   H70       1.0  0.80551  0.32440  0.12574  1.0000
  H   H71       1.0  0.31734  0.28166  0.81952  1.0000
  H   H72       1.0  0.18986  0.23234  0.00307  1.0000
  N   N14       1.0  0.81811  0.29280  0.93176  1.0000
  C   C125      1.0  0.53484  0.95889  0.00966  1.0000
  C   C126      1.0  0.56904  0.02171  0.99479  1.0000
  C   C127      1.0  0.53300  0.08511  0.01572  1.0000
  C   C128      1.0  0.67051  0.18112  0.01565  1.0000
  C   C129      1.0  0.22110  0.28257  0.91355  1.0000
  C   C130      1.0  0.25728  0.29627  0.86038  1.0000
  C   C131      1.0  0.24994  0.21818  0.96429  1.0000
  H   H73       1.0  0.59580  0.03814  0.98047  1.0000
  H   H74       1.0  0.68633  0.18155  0.12126  1.0000
  H   H75       1.0  0.26030  0.32679  0.82005  1.0000
  H   H76       1.0  0.24680  0.18765  0.00244  1.0000
  N   N15       1.0  0.68363  0.19954  0.89867  1.0000
  C   C132      1.0  0.03416  0.45727  0.01033  1.0000
  C   C133      1.0  0.06950  0.51936  0.99509  1.0000
  C   C134      1.0  0.03448  0.58343  0.01950  1.0000
  C   C135      1.0  0.06999  0.60767  0.02021  1.0000
  C   C136      1.0  0.10164  0.59885  0.11396  1.0000
  C   C137      1.0  0.13360  0.62365  0.11731  1.0000
  C   C138      1.0  0.13580  0.65711  0.02310  1.0000
  C   C139      1.0  0.10418  0.66626  0.92970  1.0000
  C   C140      1.0  0.07166  0.64224  0.92981  1.0000
  C   C141      1.0  0.17104  0.68081  0.02651  1.0000
  C   C142      1.0  0.71553  0.77311  0.92852  1.0000
  C   C143      1.0  0.71583  0.73979  0.83703  1.0000
  C   C144      1.0  0.78117  0.75656  0.00632  1.0000
  H   H77       1.0  0.09660  0.53503  0.97816  1.0000
  H   H78       1.0  0.10008  0.57344  0.18985  1.0000
  H   H79       1.0  0.15704  0.61777  0.19596  1.0000
  H   H80       1.0  0.10561  0.69227  0.85684  1.0000
  H   H81       1.0  0.04734  0.64919  0.85615  1.0000
  H   H82       1.0  0.18754  0.67974  0.13055  1.0000
  H   H83       1.0  0.69017  0.73415  0.77017  1.0000
  H   H84       1.0  0.80709  0.76321  0.07013  1.0000
  N   N16       1.0  0.18277  0.70144  0.91291  1.0000
  C   C145      1.0  0.49724  0.10438  0.01933  1.0000
  C   C146      1.0  0.49855  0.97965  0.01099  1.0000
  H   H85       1.0  0.49677  0.13626  0.02925  1.0000
  C   C147      1.0  0.99905  0.60337  0.02559  1.0000
  C   C148      1.0  0.99826  0.47867  0.01279  1.0000
  H   H86       1.0  0.99958  0.63522  0.03697  1.0000
  C   C149      1.0  0.49946  0.89711  0.01654  1.0000
  C   C150      1.0  0.49796  0.02189  0.01149  1.0000
  H   H87       1.0  0.49990  0.86517  0.02628  1.0000
  C   C151      1.0  0.99772  0.39609  0.00844  1.0000
  C   C152      1.0  0.99848  0.52089  0.01573  1.0000
  H   H88       1.0  0.99753  0.36409  0.01269  1.0000
  C   C153      1.0  0.89182  0.60431  0.62949  1.0000
  C   C154      1.0  0.92348  0.60596  0.53203  1.0000
  C  Sn1       1.0  0.92632  0.63619  0.42490  1.0000
  C  Sn2       1.0  0.89688  0.66526  0.41544  1.0000
  C   C155      1.0  0.86535  0.66336  0.51353  1.0000
  C   C156      1.0  0.86279  0.63297  0.62028  1.0000
  H   H89       1.0  0.88985  0.58081  0.71215  1.0000
  O  Te1       1.0  0.95813  0.63740  0.32837  1.0000
  O  Te2       1.0  0.89900  0.69580  0.30945  1.0000
  H   H90       1.0  0.83829  0.63171  0.69578  1.0000
  Mg  Mg1       1.0  0.94802  0.68480  0.20275  1.0000
  C   C157      1.0  0.23985  0.22368  0.57754  1.0000
  C   C158      1.0  0.26993  0.21683  0.47654  1.0000
  C  Sn3       1.0  0.27404  0.24059  0.34865  1.0000
  C  Sn4       1.0  0.24750  0.27177  0.32170  1.0000
  C   C159      1.0  0.21752  0.27841  0.42348  1.0000
  C   C160      1.0  0.21367  0.25444  0.55108  1.0000
  H   H91       1.0  0.23688  0.20515  0.67631  1.0000
  O  Te3       1.0  0.30425  0.23333  0.24886  1.0000
  O  Te4       1.0  0.25094  0.29598  0.19480  1.0000
  H   H92       1.0  0.19039  0.25977  0.62931  1.0000
  Mg  Mg2       1.0  0.29689  0.27437  0.09182  1.0000
  C   C161      1.0  0.88629  0.60230  0.13585  1.0000
  C   C162      1.0  0.91896  0.60438  0.04364  1.0000
  C  Sn5       1.0  0.92267  0.63127  0.94151  1.0000
  C  Sn6       1.0  0.89381  0.66092  0.93181  1.0000
  C   C163      1.0  0.86195  0.66291  0.02463  1.0000
  C   C164      1.0  0.85782  0.63154  0.12639  1.0000
  H   H93       1.0  0.88310  0.57805  0.21464  1.0000
  O  Te5       1.0  0.95548  0.63289  0.85018  1.0000
  O  Te6       1.0  0.89750  0.69245  0.83077  1.0000
  H   H94       1.0  0.83253  0.62996  0.19784  1.0000
  Mg  Mg3       1.0  0.94742  0.68167  0.73014  1.0000
  C   C165      1.0  0.13145  0.61939  0.63470  1.0000
  C   C166      1.0  0.13998  0.65131  0.53985  1.0000
  C  Sn7       1.0  0.11353  0.66335  0.43049  1.0000
  C  Sn8       1.0  0.07790  0.64303  0.41612  1.0000
  C   C167      1.0  0.06963  0.61115  0.51163  1.0000
  C   C168      1.0  0.09631  0.59933  0.62064  1.0000
  H   H95       1.0  0.15208  0.61026  0.71910  1.0000
  O  Te7       1.0  0.12251  0.69529  0.33661  1.0000
  O  Te8       1.0  0.05094  0.65446  0.30782  1.0000
  H   H96       1.0  0.08969  0.57464  0.69413  1.0000
  Mg  Mg4       1.0  0.07642  0.69973  0.20626  1.0000
  C   C169      1.0  0.90352  0.33580  0.42198  1.0000
  C   C170      1.0  0.87065  0.34014  0.51156  1.0000
  C  Sn9       1.0  0.86665  0.37303  0.60195  1.0000
  C  Sn10      1.0  0.89614  0.40206  0.60240  1.0000
  C   C171      1.0  0.92890  0.39746  0.51230  1.0000
  C   C172      1.0  0.93262  0.36443  0.42231  1.0000
  H   H97       1.0  0.90639  0.31025  0.35228  1.0000
  O  Te9       1.0  0.83362  0.37691  0.69082  1.0000
  O  Te10      1.0  0.89287  0.43523  0.69164  1.0000
  H   H98       1.0  0.95807  0.36108  0.35289  1.0000
  Mg  Mg5       1.0  0.84244  0.42731  0.79338  1.0000
  C   C173      1.0  0.58001  0.85186  0.90851  1.0000
  C   C174      1.0  0.57053  0.88690  0.00278  1.0000
  C  Sn11      1.0  0.59659  0.90003  0.11010  1.0000
  C  Sn12      1.0  0.63353  0.88202  0.12298  1.0000
  C   C175      1.0  0.64346  0.85132  0.02807  1.0000
  C   C176      1.0  0.61644  0.83409  0.92110  1.0000
  H   H99       1.0  0.55967  0.84188  0.82569  1.0000
  O  Te11      1.0  0.58593  0.93075  0.20342  1.0000
  O  Te12      1.0  0.66014  0.89457  0.22922  1.0000
  H   H100      1.0  0.62435  0.81032  0.84806  1.0000
  Mg  Mg6       1.0  0.63218  0.93747  0.33079  1.0000
  C   C177      1.0  0.59470  0.16343  0.89841  1.0000
  C   C178      1.0  0.62636  0.16278  0.99528  1.0000
  C  Sn13      1.0  0.63021  0.13769  0.10551  1.0000
  C  Sn14      1.0  0.60107  0.10843  0.11871  1.0000
  C   C179      1.0  0.56952  0.10932  0.02118  1.0000
  C   C180      1.0  0.56596  0.13457  0.91131  1.0000
  H   H101      1.0  0.59250  0.18629  0.81335  1.0000
  O  Te13      1.0  0.66202  0.13749  0.20140  1.0000
  O  Te14      1.0  0.60349  0.07870  0.22784  1.0000
  H   H102      1.0  0.54145  0.13505  0.83626  1.0000
  Mg  Mg7       1.0  0.65238  0.09094  0.33221  1.0000
  C   C181      1.0  0.88552  0.39874  0.12237  1.0000
  C   C182      1.0  0.91954  0.39387  0.03982  1.0000
  C  Sn15      1.0  0.92220  0.35862  0.93974  1.0000
  C  Sn16      1.0  0.89088  0.33211  0.92218  1.0000
  C   C183      1.0  0.85768  0.34157  0.00520  1.0000
  C   C184      1.0  0.85461  0.37262  0.10507  1.0000
  H   H103      1.0  0.88314  0.42278  0.19958  1.0000
  O  Te15      1.0  0.95640  0.35417  0.85820  1.0000
  O  Te16      1.0  0.89347  0.30095  0.82289  1.0000
  H   H104      1.0  0.82826  0.37640  0.16889  1.0000
  Mg  Mg8       1.0  0.94603  0.30713  0.73688  1.0000
  C   C185      1.0  0.75914  0.77722  0.53680  1.0000
  C   C186      1.0  0.72573  0.77741  0.44907  1.0000
  C  Sn17      1.0  0.71922  0.74734  0.34760  1.0000
  C  Sn18      1.0  0.74670  0.71655  0.33398  1.0000
  C   C187      1.0  0.78001  0.71661  0.42233  1.0000
  C   C188      1.0  0.78625  0.74686  0.52348  1.0000
  H   H105      1.0  0.76396  0.80061  0.61512  1.0000
  O  Te17      1.0  0.68570  0.74798  0.26077  1.0000
  O  Te18      1.0  0.74090  0.68612  0.23349  1.0000
  H   H106      1.0  0.81210  0.74669  0.59146  1.0000
  Mg  Mg9       1.0  0.69076  0.69998  0.13969  1.0000
  C   C189      1.0  0.09681  0.33604  0.42446  1.0000
  C   C190      1.0  0.13209  0.34218  0.49645  1.0000
  C  Sn19      1.0  0.13656  0.37391  0.59219  1.0000
  C  Sn20      1.0  0.10507  0.39991  0.61613  1.0000
  C   C191      1.0  0.06989  0.39349  0.54366  1.0000
  C   C192      1.0  0.06573  0.36166  0.44805  1.0000
  H   H107      1.0  0.09359  0.31141  0.35054  1.0000
  O  Te19      1.0  0.17201  0.37962  0.66318  1.0000
  O  Te20      1.0  0.10875  0.43183  0.71128  1.0000
  H   H108      1.0  0.03841  0.35690  0.39240  1.0000
  Mg  Mg10      1.0  0.16281  0.42732  0.78247  1.0000
  C   C193      1.0  0.10730  0.39377  0.14404  1.0000
  C   C194      1.0  0.07733  0.39479  0.03946  1.0000
  C  Sn21      1.0  0.07539  0.36289  0.92554  1.0000
  C  Sn22      1.0  0.10473  0.33378  0.91645  1.0000
  C   C195      1.0  0.13528  0.33732  0.02167  1.0000
  C   C196      1.0  0.13624  0.36506  0.13519  1.0000
  H   H109      1.0  0.10803  0.41522  0.23192  1.0000
  O  Te21      1.0  0.04526  0.36434  0.82195  1.0000
  O  Te22      1.0  0.10419  0.30586  0.80377  1.0000
  H   H110      1.0  0.15943  0.36425  0.21619  1.0000
  Mg  Mg11      1.0  0.05714  0.31991  0.68882  1.0000
  C   C197      1.0  0.40678  0.83725  0.41552  1.0000
  C   C198      1.0  0.37475  0.83812  0.51111  1.0000
  C  Sn23      1.0  0.37092  0.86808  0.61513  1.0000
  C  Sn24      1.0  0.39973  0.89770  0.62332  1.0000
  C   C199      1.0  0.43165  0.89658  0.52712  1.0000
  C   C200      1.0  0.43521  0.86646  0.42348  1.0000
  H   H111      1.0  0.40952  0.81395  0.33527  1.0000
  O  Te23      1.0  0.33874  0.86850  0.70983  1.0000
  O  Te24      1.0  0.39662  0.92799  0.72620  1.0000
  H   H112      1.0  0.46000  0.86581  0.34942  1.0000
  Mg  Mg12      1.0  0.34745  0.91585  0.83134  1.0000
