data_image0
_chemical_formula_structural       C4H2NC4H2NC4H2NC4H2NC4H2NC4H2NC4H2NC4H2NC2HC2HC2HC2HC4H2NC4H2NC4H2NC4H2NC4H2NC4H2NC4H2NC4H2NC2HC2HC2HC2HSnCSn2CSnTe4Mg2SnCSn2CSnTe4Mg2SnCSn2CSnTe4Mg2SnCSn2CSnTe4Mg2SnCSn2CSnTe4Mg2SnCSn2CSnTe4Mg2SnCSn2CSnTe4Mg2SnCSn2CSnTe4Mg2SnCSn2CSnTe4Mg2SnCSn2CSnTe4Mg2SnCSn2CSnTe4Mg2SnCSn2CSnTe4Mg2SnCSn2CSnTe4Mg2SnCSn2CSnTe4Mg2SnCSn2CSnTe4Mg2SnCSn2CSnTe4Mg2SnCSn2CSnTe4Mg2SnCSn2CSnTe4Mg2SnCSn2CSnTe4Mg2SnCSn2CSnTe4Mg2SnCSn2CSnTe4Mg2SnCSn2CSnTe4Mg2SnCSn2CSnTe4Mg2SnCSn2CSnTe4Mg2
_chemical_formula_sum              "C128 H40 N16 Sn96 Te96 Mg48"
_cell_length_a       34.5425
_cell_length_b       33.9849
_cell_length_c       8.95192
_cell_angle_alpha    89.061
_cell_angle_beta     89.8422
_cell_angle_gamma    89.9582

_symmetry_space_group_name_H-M    'P1'
_space_group_IT_number       1

loop_
  _space_group_symop_operation_xyz
  'x, y, z'

loop_
  _atom_site_type_symbol
  _atom_site_label
  _atom_site_symmetry_multiplicity
  _atom_site_fract_x
  _atom_site_fract_y
  _atom_site_fract_z
  _atom_site_occupancy
  C   C1        1.0  0.46671  0.95854  0.50690  1.0000
  C   C2        1.0  0.43050  0.02004  0.48901  1.0000
  C   C3        1.0  0.46436  0.08446  0.51274  1.0000
  C   C4        1.0  0.32188  0.17233  0.55422  1.0000
  H   H1        1.0  0.40316  0.03547  0.47570  1.0000
  H   H2        1.0  0.30426  0.16688  0.65370  1.0000
  N   N1        1.0  0.31183  0.19638  0.44786  1.0000
  C   C5        1.0  0.96527  0.45958  0.49903  1.0000
  C   C6        1.0  0.93116  0.52266  0.48593  1.0000
  C   C7        1.0  0.96729  0.58603  0.51069  1.0000
  C   C8        1.0  0.82816  0.67963  0.51805  1.0000
  H   H3        1.0  0.90431  0.53896  0.47250  1.0000
  H   H4        1.0  0.81210  0.67799  0.62312  1.0000
  N   N2        1.0  0.81491  0.69945  0.40410  1.0000
  C   C9        1.0  0.53691  0.04435  0.50091  1.0000
  C   C10       1.0  0.57333  0.98278  0.49130  1.0000
  C   C11       1.0  0.53899  0.91795  0.51822  1.0000
  C   C12       1.0  0.67454  0.81887  0.53831  1.0000
  H   H5        1.0  0.60106  0.96791  0.48259  1.0000
  H   H6        1.0  0.69173  0.81967  0.64064  1.0000
  N   N3        1.0  0.68328  0.79659  0.42821  1.0000
  C   C13       1.0  0.03820  0.54337  0.50795  1.0000
  C   C14       1.0  0.07261  0.48102  0.49160  1.0000
  C   C15       1.0  0.03671  0.41728  0.51107  1.0000
  C   C16       1.0  0.17448  0.32097  0.52733  1.0000
  H   H7        1.0  0.09958  0.46507  0.47823  1.0000
  H   H8        1.0  0.19197  0.32248  0.62908  1.0000
  N   N4        1.0  0.18438  0.29937  0.41626  1.0000
  C   C17       1.0  0.46505  0.04269  0.50442  1.0000
  C   C18       1.0  0.43137  0.97989  0.48922  1.0000
  C   C19       1.0  0.46756  0.91674  0.51766  1.0000
  C   C20       1.0  0.33100  0.81849  0.53502  1.0000
  H   H9        1.0  0.40467  0.96355  0.47559  1.0000
  H   H10       1.0  0.31064  0.82467  0.62567  1.0000
  N   N5        1.0  0.32451  0.79154  0.43776  1.0000
  C   C21       1.0  0.96633  0.54422  0.50399  1.0000
  C   C22       1.0  0.93070  0.48246  0.48263  1.0000
  C   C23       1.0  0.96521  0.41749  0.50328  1.0000
  C   C24       1.0  0.82604  0.32227  0.53525  1.0000
  H   H11       1.0  0.90344  0.46738  0.46424  1.0000
  H   H12       1.0  0.80699  0.32869  0.62952  1.0000
  N   N6        1.0  0.81738  0.29666  0.43552  1.0000
  C   C25       1.0  0.53878  0.95989  0.50784  1.0000
  C   C26       1.0  0.57238  0.02304  0.48640  1.0000
  C   C27       1.0  0.53539  0.08620  0.50690  1.0000
  C   C28       1.0  0.67411  0.17960  0.53378  1.0000
  H   H13       1.0  0.59906  0.03956  0.47169  1.0000
  H   H14       1.0  0.69287  0.17595  0.63153  1.0000
  N   N7        1.0  0.68346  0.20243  0.42211  1.0000
  C   C29       1.0  0.03742  0.45913  0.50540  1.0000
  C   C30       1.0  0.07307  0.52121  0.49228  1.0000
  C   C31       1.0  0.03847  0.58515  0.51536  1.0000
  C   C32       1.0  0.17344  0.68513  0.52058  1.0000
  H   H15       1.0  0.10018  0.53702  0.47827  1.0000
  H   H16       1.0  0.18547  0.69049  0.63104  1.0000
  N   N8        1.0  0.18966  0.69878  0.40123  1.0000
  C   C33       1.0  0.49941  0.10509  0.51153  1.0000
  C   C34       1.0  0.50234  0.98026  0.50638  1.0000
  H   H17       1.0  0.49874  0.13702  0.52237  1.0000
  C   C35       1.0  0.00303  0.60521  0.51730  1.0000
  C   C36       1.0  0.00149  0.48039  0.50444  1.0000
  H   H18       1.0  0.00318  0.63710  0.52806  1.0000
  C   C37       1.0  0.50352  0.89790  0.52340  1.0000
  C   C38       1.0  0.50147  0.02247  0.50423  1.0000
  H   H19       1.0  0.50390  0.86602  0.53724  1.0000
  C   C39       1.0  0.00091  0.39799  0.50861  1.0000
  C   C40       1.0  0.00198  0.52264  0.50679  1.0000
  H   H20       1.0  0.00101  0.36607  0.51846  1.0000
  C   C41       1.0  0.46280  0.95825  0.00959  1.0000
  C   C42       1.0  0.42693  0.02030  0.99705  1.0000
  C   C43       1.0  0.46179  0.08445  0.01686  1.0000
  C   C44       1.0  0.32720  0.18515  0.02318  1.0000
  H   H21       1.0  0.39961  0.03584  0.98504  1.0000
  H   H22       1.0  0.30917  0.18431  0.12395  1.0000
  N   N9        1.0  0.31988  0.20858  0.91259  1.0000
  C   C45       1.0  0.96216  0.45787  0.00923  1.0000
  C   C46       1.0  0.92752  0.52064  0.00282  1.0000
  C   C47       1.0  0.96324  0.58421  0.02364  1.0000
  C   C48       1.0  0.82617  0.68142  0.02444  1.0000
  H   H23       1.0  0.90043  0.53662  0.99184  1.0000
  H   H24       1.0  0.81089  0.68411  0.13086  1.0000
  N   N10       1.0  0.81338  0.69848  0.90486  1.0000
  C   C49       1.0  0.53376  0.04329  0.01004  1.0000
  C   C50       1.0  0.56960  0.98145  0.99500  1.0000
  C   C51       1.0  0.53506  0.91695  0.01507  1.0000
  C   C52       1.0  0.67354  0.82090  0.02765  1.0000
  H   H25       1.0  0.59695  0.96610  0.98101  1.0000
  H   H26       1.0  0.69236  0.82528  0.12430  1.0000
  N   N11       1.0  0.68145  0.79576  0.92459  1.0000
  C   C53       1.0  0.03466  0.54161  0.01267  1.0000
  C   C54       1.0  0.06935  0.47912  0.99564  1.0000
  C   C55       1.0  0.03349  0.41535  0.01191  1.0000
  C   C56       1.0  0.17251  0.32049  0.02404  1.0000
  H   H27       1.0  0.09625  0.46301  0.98085  1.0000
  H   H28       1.0  0.18615  0.31604  0.13315  1.0000
  N   N12       1.0  0.18778  0.30664  0.90449  1.0000
  C   C57       1.0  0.46172  0.04267  0.01119  1.0000
  C   C58       1.0  0.42754  0.98011  0.99622  1.0000
  C   C59       1.0  0.46359  0.91636  0.01462  1.0000
  C   C60       1.0  0.32538  0.82082  0.04473  1.0000
  H   H29       1.0  0.40060  0.96416  0.98295  1.0000
  H   H30       1.0  0.30783  0.82469  0.14548  1.0000
  N   N13       1.0  0.31608  0.79667  0.94099  1.0000
  C   C61       1.0  0.96263  0.54236  0.01721  1.0000
  C   C62       1.0  0.92732  0.48049  0.99866  1.0000
  C   C63       1.0  0.96216  0.41594  0.00791  1.0000
  C   C64       1.0  0.82500  0.31891  0.03148  1.0000
  H   H31       1.0  0.90015  0.46506  0.98393  1.0000
  H   H32       1.0  0.80551  0.32440  0.12574  1.0000
  N   N14       1.0  0.81811  0.29280  0.93176  1.0000
  C   C65       1.0  0.53484  0.95889  0.00966  1.0000
  C   C66       1.0  0.56904  0.02171  0.99479  1.0000
  C   C67       1.0  0.53300  0.08511  0.01572  1.0000
  C   C68       1.0  0.67051  0.18112  0.01565  1.0000
  H   H33       1.0  0.59580  0.03814  0.98047  1.0000
  H   H34       1.0  0.68633  0.18155  0.12126  1.0000
  N   N15       1.0  0.68363  0.19954  0.89867  1.0000
  C   C69       1.0  0.03416  0.45727  0.01033  1.0000
  C   C70       1.0  0.06950  0.51936  0.99509  1.0000
  C   C71       1.0  0.03448  0.58343  0.01950  1.0000
  C   C72       1.0  0.17104  0.68081  0.02651  1.0000
  H   H35       1.0  0.09660  0.53503  0.97816  1.0000
  H   H36       1.0  0.18754  0.67974  0.13055  1.0000
  N   N16       1.0  0.18277  0.70144  0.91291  1.0000
  C   C73       1.0  0.49724  0.10438  0.01933  1.0000
  C   C74       1.0  0.49855  0.97965  0.01099  1.0000
  H   H37       1.0  0.49677  0.13626  0.02925  1.0000
  C   C75       1.0  0.99905  0.60337  0.02559  1.0000
  C   C76       1.0  0.99826  0.47867  0.01279  1.0000
  H   H38       1.0  0.99958  0.63522  0.03697  1.0000
  C   C77       1.0  0.49946  0.89711  0.01654  1.0000
  C   C78       1.0  0.49796  0.02189  0.01149  1.0000
  H   H39       1.0  0.49990  0.86517  0.02628  1.0000
  C   C79       1.0  0.99772  0.39609  0.00844  1.0000
  C   C80       1.0  0.99848  0.52089  0.01573  1.0000
  H   H40       1.0  0.99753  0.36409  0.01269  1.0000
  C  Sn1       1.0  0.39215  0.15396  0.40734  1.0000
  C   C81       1.0  0.36043  0.14711  0.50144  1.0000
  C  Sn2       1.0  0.36378  0.12172  0.62502  1.0000
  C  Sn3       1.0  0.39959  0.10280  0.65526  1.0000
  C   C82       1.0  0.43128  0.10966  0.56121  1.0000
  C  Sn4       1.0  0.42796  0.13504  0.43757  1.0000
  O  Te1       1.0  0.38814  0.17946  0.28442  1.0000
  O  Te2       1.0  0.33166  0.11532  0.71746  1.0000
  O  Te3       1.0  0.40358  0.07728  0.77829  1.0000
  O  Te4       1.0  0.46005  0.14145  0.34519  1.0000
  Mg  Mg1       1.0  0.35154  0.07803  0.87128  1.0000
  Mg  Mg2       1.0  0.44022  0.17874  0.19139  1.0000
  C  Sn5       1.0  0.71995  0.26990  0.52020  1.0000
  C   C83       1.0  0.71287  0.23862  0.42463  1.0000
  C  Sn6       1.0  0.74292  0.22267  0.34017  1.0000
  C  Sn7       1.0  0.78084  0.23830  0.35152  1.0000
  C   C84       1.0  0.78790  0.26955  0.44706  1.0000
  C  Sn8       1.0  0.75787  0.28553  0.53156  1.0000
  O  Te5       1.0  0.68947  0.28539  0.60360  1.0000
  O  Te6       1.0  0.73514  0.19142  0.24536  1.0000
  O  Te7       1.0  0.81133  0.22278  0.26802  1.0000
  O  Te8       1.0  0.76564  0.31676  0.62634  1.0000
  Mg  Mg3       1.0  0.78625  0.18032  0.15465  1.0000
  Mg  Mg4       1.0  0.71456  0.32786  0.71715  1.0000
  C  Sn9       1.0  0.92752  0.65746  0.44036  1.0000
  C   C85       1.0  0.93554  0.62394  0.52742  1.0000
  C  Sn10      1.0  0.90582  0.60433  0.60406  1.0000
  C  Sn11      1.0  0.86728  0.61849  0.59340  1.0000
  C   C86       1.0  0.85927  0.65198  0.50637  1.0000
  C  Sn12      1.0  0.88898  0.67162  0.42970  1.0000
  O  Te9       1.0  0.95769  0.67660  0.36470  1.0000
  O  Te10      1.0  0.91455  0.57089  0.69044  1.0000
  O  Te11      1.0  0.83711  0.59931  0.66916  1.0000
  O  Te12      1.0  0.88027  0.70503  0.34335  1.0000
  Mg  Mg5       1.0  0.86353  0.55497  0.77257  1.0000
  Mg  Mg6       1.0  0.93125  0.72096  0.26111  1.0000
  C  Sn13      1.0  0.22369  0.77096  0.46059  1.0000
  C   C87       1.0  0.22053  0.73400  0.39558  1.0000
  C  Sn14      1.0  0.25371  0.71263  0.35921  1.0000
  C  Sn15      1.0  0.29082  0.72853  0.38850  1.0000
  C   C88       1.0  0.29397  0.76546  0.45350  1.0000
  C  Sn16      1.0  0.26081  0.78686  0.48989  1.0000
  O  Te13      1.0  0.19013  0.79181  0.49604  1.0000
  O  Te14      1.0  0.24982  0.67575  0.29425  1.0000
  O  Te15      1.0  0.32439  0.70765  0.35299  1.0000
  O  Te16      1.0  0.26469  0.82372  0.55483  1.0000
  Mg  Mg7       1.0  0.30411  0.65862  0.26617  1.0000
  Mg  Mg8       1.0  0.21041  0.84086  0.58302  1.0000
  C  Sn17      1.0  0.60543  0.84476  0.39990  1.0000
  C   C89       1.0  0.63829  0.84809  0.48949  1.0000
  C  Sn18      1.0  0.63796  0.87255  0.61336  1.0000
  C  Sn19      1.0  0.60406  0.89412  0.64849  1.0000
  C   C90       1.0  0.57122  0.89078  0.55895  1.0000
  C  Sn20      1.0  0.57153  0.86633  0.43503  1.0000
  O  Te17      1.0  0.60641  0.82012  0.27661  1.0000
  O  Te18      1.0  0.67118  0.87542  0.70123  1.0000
  O  Te19      1.0  0.60310  0.91877  0.77189  1.0000
  O  Te20      1.0  0.53834  0.86346  0.34721  1.0000
  Mg  Mg9       1.0  0.65559  0.91284  0.85757  1.0000
  Mg  Mg10      1.0  0.55389  0.82603  0.19089  1.0000
  C  Sn21      1.0  0.10344  0.34462  0.39493  1.0000
  C   C91       1.0  0.13696  0.34915  0.47997  1.0000
  C  Sn22      1.0  0.13705  0.37403  0.60267  1.0000
  C  Sn23      1.0  0.10292  0.39478  0.64123  1.0000
  C   C92       1.0  0.06942  0.39024  0.55623  1.0000
  C  Sn24      1.0  0.06931  0.36538  0.43349  1.0000
  O  Te21      1.0  0.10401  0.31960  0.27274  1.0000
  O  Te22      1.0  0.17092  0.37809  0.68597  1.0000
  O  Te23      1.0  0.10237  0.41982  0.76353  1.0000
  O  Te24      1.0  0.03546  0.36130  0.35024  1.0000
  Mg  Mg11      1.0  0.15570  0.41561  0.84252  1.0000
  Mg  Mg12      1.0  0.05064  0.32378  0.19372  1.0000
  C  Sn25      1.0  0.41912  0.85873  0.39407  1.0000
  C   C93       1.0  0.42688  0.89115  0.48323  1.0000
  C  Sn26      1.0  0.40524  0.89759  0.61259  1.0000
  C  Sn27      1.0  0.37523  0.87106  0.65377  1.0000
  C   C94       1.0  0.36748  0.83866  0.56465  1.0000
  C  Sn28      1.0  0.38911  0.83220  0.43525  1.0000
  O  Te25      1.0  0.44113  0.85286  0.26523  1.0000
  O  Te26      1.0  0.41353  0.93021  0.69991  1.0000
  O  Te27      1.0  0.35322  0.87695  0.78273  1.0000
  O  Te28      1.0  0.38084  0.79960  0.34797  1.0000
  Mg  Mg13      1.0  0.37551  0.92561  0.86520  1.0000
  Mg  Mg14      1.0  0.41885  0.80416  0.18271  1.0000
  C  Sn29      1.0  0.77141  0.75564  0.55759  1.0000
  C   C95       1.0  0.77627  0.72234  0.46987  1.0000
  C  Sn30      1.0  0.75210  0.71600  0.34777  1.0000
  C  Sn31      1.0  0.72248  0.74351  0.31253  1.0000
  C   C96       1.0  0.71764  0.77678  0.40020  1.0000
  C  Sn32      1.0  0.74179  0.78315  0.52235  1.0000
  O  Te29      1.0  0.79591  0.76139  0.67913  1.0000
  O  Te30      1.0  0.75750  0.68249  0.26176  1.0000
  O  Te31      1.0  0.69797  0.73773  0.19088  1.0000
  O  Te32      1.0  0.73640  0.81664  0.60832  1.0000
  Mg  Mg15      1.0  0.71680  0.68763  0.10737  1.0000
  Mg  Mg16      1.0  0.77710  0.81153  0.76268  1.0000
  C  Sn33      1.0  0.90672  0.33067  0.46723  1.0000
  C   C97       1.0  0.87251  0.33779  0.54603  1.0000
  C  Sn34      1.0  0.86482  0.37514  0.60190  1.0000
  C  Sn35      1.0  0.89187  0.40602  0.57846  1.0000
  C   C98       1.0  0.92605  0.39889  0.49969  1.0000
  C  Sn36      1.0  0.93377  0.36155  0.44379  1.0000
  O  Te33      1.0  0.91381  0.29311  0.41237  1.0000
  O  Te34      1.0  0.83042  0.38155  0.68037  1.0000
  O  Te35      1.0  0.88475  0.44360  0.63341  1.0000
  O  Te36      1.0  0.96814  0.35514  0.36535  1.0000
  Mg  Mg17      1.0  0.83382  0.43778  0.73321  1.0000
  Mg  Mg18      1.0  0.96476  0.29893  0.31240  1.0000
  C  Sn37      1.0  0.23480  0.21583  0.54221  1.0000
  C   C99       1.0  0.26680  0.21225  0.44750  1.0000
  C  Sn38      1.0  0.27604  0.24235  0.34545  1.0000
  C  Sn39      1.0  0.25283  0.27677  0.33797  1.0000
  C   C100      1.0  0.22087  0.28035  0.43266  1.0000
  C  Sn40      1.0  0.21160  0.25025  0.53473  1.0000
  O  Te37      1.0  0.22611  0.18537  0.64337  1.0000
  O  Te38      1.0  0.30816  0.23809  0.25188  1.0000
  O  Te39      1.0  0.26156  0.30724  0.23670  1.0000
  O  Te40      1.0  0.17951  0.25451  0.62828  1.0000
  Mg  Mg19      1.0  0.30824  0.28769  0.13278  1.0000
  Mg  Mg20      1.0  0.17941  0.20493  0.74747  1.0000
  C  Sn41      1.0  0.59435  0.17188  0.46128  1.0000
  C   C101      1.0  0.62727  0.16502  0.54833  1.0000
  C  Sn42      1.0  0.63363  0.12808  0.61454  1.0000
  C  Sn43      1.0  0.60654  0.09735  0.59323  1.0000
  C   C102      1.0  0.57365  0.10422  0.50621  1.0000
  C  Sn44      1.0  0.56726  0.14115  0.43997  1.0000
  O  Te41      1.0  0.58858  0.20903  0.39614  1.0000
  O  Te42      1.0  0.66675  0.12193  0.70113  1.0000
  O  Te43      1.0  0.61235  0.06018  0.65846  1.0000
  O  Te44      1.0  0.53417  0.14730  0.35340  1.0000
  Mg  Mg21      1.0  0.66182  0.06623  0.76665  1.0000
  Mg  Mg22      1.0  0.53908  0.20298  0.28777  1.0000
  C  Sn45      1.0  0.09508  0.67018  0.44017  1.0000
  C   C103      1.0  0.12850  0.66720  0.52728  1.0000
  C  Sn46      1.0  0.13703  0.63228  0.60487  1.0000
  C  Sn47      1.0  0.11165  0.59965  0.59511  1.0000
  C   C104      1.0  0.07826  0.60263  0.50803  1.0000
  C  Sn48      1.0  0.06970  0.63754  0.43042  1.0000
  O  Te45      1.0  0.08712  0.70538  0.36355  1.0000
  O  Te46      1.0  0.17061  0.63002  0.69128  1.0000
  O  Te47      1.0  0.11964  0.56444  0.67183  1.0000
  O  Te48      1.0  0.03615  0.63981  0.34403  1.0000
  Mg  Mg23      1.0  0.16892  0.57575  0.77489  1.0000
  Mg  Mg24      1.0  0.03783  0.69406  0.26031  1.0000
  C  Sn49      1.0  0.39547  0.15734  0.88715  1.0000
  C   C105      1.0  0.36286  0.15480  0.97951  1.0000
  C  Sn50      1.0  0.36381  0.13473  0.10663  1.0000
  C  Sn51      1.0  0.39735  0.11243  0.14225  1.0000
  C   C106      1.0  0.42995  0.11498  0.04994  1.0000
  C  Sn52      1.0  0.42902  0.13504  0.92277  1.0000
  O  Te49      1.0  0.39459  0.18192  0.76063  1.0000
  O  Te50      1.0  0.33085  0.13267  0.19724  1.0000
  O  Te51      1.0  0.39821  0.08784  0.26889  1.0000
  O  Te52      1.0  0.46196  0.13712  0.83221  1.0000
  Mg  Mg25      1.0  0.34617  0.09500  0.35749  1.0000
  Mg  Mg26      1.0  0.44667  0.17478  0.67198  1.0000
  C  Sn53      1.0  0.76392  0.20837  0.88194  1.0000
  C   C107      1.0  0.72670  0.21535  0.93712  1.0000
  C  Sn54      1.0  0.71583  0.25309  0.98050  1.0000
  C  Sn55      1.0  0.74272  0.28451  0.96839  1.0000
  C   C108      1.0  0.77991  0.27752  0.91322  1.0000
  C  Sn56      1.0  0.79080  0.23979  0.86984  1.0000
  O  Te53      1.0  0.77415  0.17041  0.83923  1.0000
  O  Te54      1.0  0.67917  0.26367  0.03538  1.0000
  O  Te55      1.0  0.73316  0.32681  0.01117  1.0000
  O  Te56      1.0  0.82814  0.23353  0.81497  1.0000
  Mg  Mg27      1.0  0.67890  0.32058  0.07911  1.0000
  Mg  Mg28      1.0  0.82844  0.17663  0.77113  1.0000
  C  Sn57      1.0  0.92497  0.65662  0.96042  1.0000
  C   C109      1.0  0.93223  0.62633  0.04303  1.0000
  C  Sn58      1.0  0.90144  0.60657  0.11244  1.0000
  C  Sn59      1.0  0.86331  0.62170  0.09892  1.0000
  C   C110      1.0  0.85678  0.65628  0.01633  1.0000
  C  Sn60      1.0  0.88684  0.67175  0.94690  1.0000
  O  Te57      1.0  0.95617  0.67588  0.89197  1.0000
  O  Te58      1.0  0.90871  0.57204  0.19448  1.0000
  O  Te59      1.0  0.83210  0.60240  0.16746  1.0000
  O  Te60      1.0  0.87958  0.70626  0.86488  1.0000
  Mg  Mg29      1.0  0.85667  0.55640  0.26712  1.0000
  Mg  Mg30      1.0  0.93159  0.72191  0.79214  1.0000
  C  Sn61      1.0  0.26051  0.71563  0.85519  1.0000
  C   C111      1.0  0.22626  0.71718  0.93834  1.0000
  C  Sn62      1.0  0.21812  0.75472  0.02176  1.0000
  C  Sn63      1.0  0.24404  0.78707  0.02201  1.0000
  C   C112      1.0  0.27755  0.78119  0.93887  1.0000
  C  Sn64      1.0  0.28642  0.74798  0.85543  1.0000
  O  Te61      1.0  0.26876  0.68212  0.77261  1.0000
  O  Te62      1.0  0.18371  0.75558  0.10405  1.0000
  O  Te63      1.0  0.23575  0.82059  0.10469  1.0000
  O  Te64      1.0  0.32081  0.74710  0.77316  1.0000
  Mg  Mg31      1.0  0.18529  0.80779  0.19877  1.0000
  Mg  Mg32      1.0  0.31925  0.69492  0.67835  1.0000
  C  Sn65      1.0  0.60398  0.84690  0.88775  1.0000
  C   C113      1.0  0.63649  0.84999  0.97939  1.0000
  C  Sn66      1.0  0.63587  0.87720  0.10748  1.0000
  C  Sn67      1.0  0.60133  0.89741  0.14483  1.0000
  C   C114      1.0  0.56884  0.89430  0.05323  1.0000
  C  Sn68      1.0  0.56943  0.86710  0.92509  1.0000
  O  Te65      1.0  0.60596  0.82384  0.76025  1.0000
  O  Te66      1.0  0.66875  0.87986  0.19734  1.0000
  O  Te67      1.0  0.59937  0.92048  0.27245  1.0000
  O  Te68      1.0  0.53658  0.86444  0.83529  1.0000
  Mg  Mg33      1.0  0.65174  0.91489  0.35946  1.0000
  Mg  Mg34      1.0  0.55355  0.82940  0.67319  1.0000
  C  Sn69      1.0  0.07426  0.34497  0.93836  1.0000
  C   C115      1.0  0.06546  0.38041  0.03177  1.0000
  C  Sn70      1.0  0.09391  0.39815  0.11842  1.0000
  C  Sn71      1.0  0.13268  0.38452  0.11151  1.0000
  C   C116      1.0  0.14218  0.35342  0.01814  1.0000
  C  Sn72      1.0  0.11303  0.33133  0.93146  1.0000
  O  Te69      1.0  0.04536  0.32767  0.85272  1.0000
  O  Te70      1.0  0.08370  0.42922  0.21100  1.0000
  O  Te71      1.0  0.16159  0.40185  0.19727  1.0000
  O  Te72      1.0  0.12323  0.30029  0.83891  1.0000
  Mg  Mg35      1.0  0.13337  0.44324  0.30618  1.0000
  Mg  Mg36      1.0  0.07359  0.28626  0.74362  1.0000
  C  Sn73      1.0  0.39470  0.89049  0.16212  1.0000
  C   C117      1.0  0.42646  0.88704  0.06615  1.0000
  C  Sn74      1.0  0.42346  0.85922  0.93991  1.0000
  C  Sn75      1.0  0.38871  0.83876  0.90888  1.0000
  C   C118      1.0  0.35768  0.84654  0.00480  1.0000
  C  Sn76      1.0  0.35995  0.87003  0.13110  1.0000
  O  Te73      1.0  0.39764  0.91415  0.28768  1.0000
  O  Te74      1.0  0.45560  0.85622  0.84564  1.0000
  O  Te75      1.0  0.38580  0.81509  0.78321  1.0000
  O  Te76      1.0  0.32783  0.87304  0.22531  1.0000
  Mg  Mg37      1.0  0.43741  0.82039  0.68845  1.0000
  Mg  Mg38      1.0  0.34598  0.90887  0.38249  1.0000
  C  Sn77      1.0  0.71697  0.72634  0.86292  1.0000
  C   C119      1.0  0.71271  0.76090  0.94387  1.0000
  C  Sn78      1.0  0.74577  0.78386  0.00357  1.0000
  C  Sn79      1.0  0.78246  0.76333  0.98184  1.0000
  C   C120      1.0  0.78671  0.72880  0.90091  1.0000
  C  Sn80      1.0  0.75437  0.71013  0.84118  1.0000
  O  Te77      1.0  0.68423  0.70820  0.80423  1.0000
  O  Te78      1.0  0.74078  0.81837  0.08414  1.0000
  O  Te79      1.0  0.81592  0.78582  0.04061  1.0000
  O  Te80      1.0  0.75935  0.67564  0.76064  1.0000
  Mg  Mg39      1.0  0.79426  0.83226  0.14209  1.0000
  Mg  Mg40      1.0  0.70589  0.66174  0.70258  1.0000
  C  Sn81      1.0  0.86382  0.38966  0.08992  1.0000
  C   C121      1.0  0.85639  0.35533  0.01111  1.0000
  C  Sn82      1.0  0.88556  0.33182  0.93617  1.0000
  C  Sn83      1.0  0.92369  0.34724  0.94015  1.0000
  C   C122      1.0  0.93182  0.38585  0.01894  1.0000
  C  Sn84      1.0  0.90194  0.40508  0.09391  1.0000
  O  Te81      1.0  0.83350  0.40837  0.16404  1.0000
  O  Te82      1.0  0.87742  0.29755  0.85808  1.0000
  O  Te83      1.0  0.95401  0.32850  0.86594  1.0000
  O  Te84      1.0  0.91007  0.43932  0.17197  1.0000
  Mg  Mg41      1.0  0.92844  0.28267  0.77488  1.0000
  Mg  Mg42      1.0  0.85908  0.45421  0.25528  1.0000
  C  Sn85      1.0  0.22650  0.24342  0.00979  1.0000
  C   C123      1.0  0.22367  0.27822  0.95983  1.0000
  C  Sn86      1.0  0.25298  0.29423  0.86989  1.0000
  C  Sn87      1.0  0.28507  0.27064  0.82895  1.0000
  C   C124      1.0  0.28718  0.23155  0.87888  1.0000
  C  Sn88      1.0  0.25788  0.21552  0.96885  1.0000
  O  Te85      1.0  0.19687  0.22803  0.09961  1.0000
  O  Te86      1.0  0.25022  0.33341  0.82135  1.0000
  O  Te87      1.0  0.31471  0.28607  0.73906  1.0000
  O  Te88      1.0  0.26133  0.18068  0.01736  1.0000
  Mg  Mg43      1.0  0.29787  0.34099  0.70088  1.0000
  Mg  Mg44      1.0  0.21370  0.17306  0.13776  1.0000
  C  Sn89      1.0  0.63077  0.11282  0.09554  1.0000
  C   C125      1.0  0.63807  0.14622  0.00680  1.0000
  C  Sn90      1.0  0.60737  0.16021  0.92765  1.0000
  C  Sn91      1.0  0.56927  0.14483  0.93747  1.0000
  C   C126      1.0  0.56269  0.11577  0.02619  1.0000
  C  Sn92      1.0  0.59267  0.09744  0.10536  1.0000
  O  Te89      1.0  0.66119  0.09500  0.17371  1.0000
  O  Te90      1.0  0.61538  0.19356  0.83962  1.0000
  O  Te91      1.0  0.53884  0.16269  0.85920  1.0000
  O  Te92      1.0  0.58467  0.06411  0.19337  1.0000
  Mg  Mg45      1.0  0.56425  0.20744  0.75426  1.0000
  Mg  Mg46      1.0  0.63577  0.05022  0.27883  1.0000
  C  Sn93      1.0  0.09128  0.66937  0.95484  1.0000
  C   C127      1.0  0.12603  0.66877  0.03707  1.0000
  C  Sn94      1.0  0.13441  0.63265  0.10640  1.0000
  C  Sn95      1.0  0.10823  0.60077  0.09319  1.0000
  C   C128      1.0  0.07422  0.60570  0.01098  1.0000
  C  Sn96      1.0  0.06510  0.63749  0.94163  1.0000
  O  Te93      1.0  0.08349  0.70574  0.88647  1.0000
  O  Te94      1.0  0.16862  0.62844  0.18806  1.0000
  O  Te95      1.0  0.11605  0.56438  0.16166  1.0000
  O  Te96      1.0  0.03092  0.64171  0.86000  1.0000
  Mg  Mg47      1.0  0.16639  0.57315  0.26075  1.0000
  Mg  Mg48      1.0  0.03313  0.69697  0.78720  1.0000
