data_image0
_chemical_formula_structural       C7H4NC7H4NC13H8NC7H4NC4H2NC10H6NC4H2NC10H6NC2HC2HC2HC2HC10H6NC10H6NC10H6NC4H2NC7H4NC13H8NC7H4NC13H8NC2HC2HC2HC2HSnCSn2CSnTe4Mg2SnCSn2CSnTe4Mg2SnCSn2CSnTe4Mg2SnCSn2CSnTe4Mg2SnCSn2CSnTe4Mg2SnCSn2CSnTe4Mg2SnCSn2CSnTe4Mg2SnCSn2CSnTe4Mg2SnCSn2CSnTe4Mg2SnCSn2CSnTe4Mg2SnCSn2CSnTe4Mg2SnCSn2CSnTe4Mg2
_chemical_formula_sum              "C176 H88 N16 Sn48 Te48 Mg24"
_cell_length_a       34.5425
_cell_length_b       33.9849
_cell_length_c       8.95192
_cell_angle_alpha    89.061
_cell_angle_beta     89.8422
_cell_angle_gamma    89.9582

_symmetry_space_group_name_H-M    'P1'
_space_group_IT_number       1

loop_
  _space_group_symop_operation_xyz
  'x, y, z'

loop_
  _atom_site_type_symbol
  _atom_site_label
  _atom_site_symmetry_multiplicity
  _atom_site_fract_x
  _atom_site_fract_y
  _atom_site_fract_z
  _atom_site_occupancy
  C   C1        1.0  0.46671  0.95854  0.50690  1.0000
  C   C2        1.0  0.43050  0.02004  0.48901  1.0000
  C   C3        1.0  0.46436  0.08446  0.51274  1.0000
  C   C4        1.0  0.32188  0.17233  0.55422  1.0000
  C   C5        1.0  0.78267  0.27501  0.44072  1.0000
  C   C6        1.0  0.77904  0.24557  0.33255  1.0000
  C   C7        1.0  0.71953  0.25567  0.53928  1.0000
  H   H1        1.0  0.40316  0.03547  0.47570  1.0000
  H   H2        1.0  0.30426  0.16688  0.65370  1.0000
  H   H3        1.0  0.80239  0.24237  0.25187  1.0000
  H   H4        1.0  0.69618  0.25910  0.62007  1.0000
  N   N1        1.0  0.31183  0.19638  0.44786  1.0000
  C   C8        1.0  0.96527  0.45958  0.49903  1.0000
  C   C9        1.0  0.93116  0.52266  0.48593  1.0000
  C   C10       1.0  0.96729  0.58603  0.51069  1.0000
  C   C11       1.0  0.82816  0.67963  0.51805  1.0000
  C   C12       1.0  0.28984  0.76994  0.43816  1.0000
  C   C13       1.0  0.29078  0.73398  0.36155  1.0000
  C   C14       1.0  0.22135  0.75851  0.49197  1.0000
  H   H5        1.0  0.90431  0.53896  0.47250  1.0000
  H   H6        1.0  0.81210  0.67799  0.62312  1.0000
  H   H7        1.0  0.31814  0.72529  0.31037  1.0000
  H   H8        1.0  0.19406  0.76744  0.54368  1.0000
  N   N2        1.0  0.81491  0.69945  0.40410  1.0000
  C   C15       1.0  0.53691  0.04435  0.50091  1.0000
  C   C16       1.0  0.57333  0.98278  0.49130  1.0000
  C   C17       1.0  0.53899  0.91795  0.51822  1.0000
  C   C18       1.0  0.57443  0.89345  0.52410  1.0000
  C   C19       1.0  0.60580  0.90168  0.61928  1.0000
  C   C20       1.0  0.63778  0.87684  0.62489  1.0000
  C   C21       1.0  0.64010  0.84362  0.53415  1.0000
  C   C22       1.0  0.60851  0.83469  0.44113  1.0000
  C   C23       1.0  0.57623  0.85892  0.43794  1.0000
  C   C24       1.0  0.67454  0.81887  0.53831  1.0000
  C   C25       1.0  0.22270  0.72262  0.41596  1.0000
  C   C26       1.0  0.25781  0.71089  0.34894  1.0000
  C   C27       1.0  0.25422  0.78217  0.50132  1.0000
  H   H9        1.0  0.60106  0.96791  0.48259  1.0000
  H   H10       1.0  0.60382  0.92639  0.69506  1.0000
  H   H11       1.0  0.66119  0.88251  0.70296  1.0000
  H   H12       1.0  0.61018  0.80865  0.37214  1.0000
  H   H13       1.0  0.55210  0.85188  0.36446  1.0000
  H   H14       1.0  0.69173  0.81967  0.64064  1.0000
  H   H15       1.0  0.25880  0.68360  0.28707  1.0000
  H   H16       1.0  0.25196  0.81012  0.55889  1.0000
  N   N3        1.0  0.68328  0.79659  0.42821  1.0000
  C   C28       1.0  0.03820  0.54337  0.50795  1.0000
  C   C29       1.0  0.07261  0.48102  0.49160  1.0000
  C   C30       1.0  0.03671  0.41728  0.51107  1.0000
  C   C31       1.0  0.17448  0.32097  0.52733  1.0000
  C   C32       1.0  0.71661  0.22590  0.43185  1.0000
  C   C33       1.0  0.74657  0.22152  0.32711  1.0000
  C   C34       1.0  0.75187  0.28012  0.54252  1.0000
  H   H17       1.0  0.09958  0.46507  0.47823  1.0000
  H   H18       1.0  0.19197  0.32248  0.62908  1.0000
  H   H19       1.0  0.74437  0.19906  0.24274  1.0000
  H   H20       1.0  0.75310  0.30254  0.62761  1.0000
  N   N4        1.0  0.18438  0.29937  0.41626  1.0000
  C   C35       1.0  0.46505  0.04269  0.50442  1.0000
  C   C36       1.0  0.43137  0.97989  0.48922  1.0000
  C   C37       1.0  0.46756  0.91674  0.51766  1.0000
  C   C38       1.0  0.33100  0.81849  0.53502  1.0000
  H   H21       1.0  0.40467  0.96355  0.47559  1.0000
  H   H22       1.0  0.31064  0.82467  0.62567  1.0000
  N   N5        1.0  0.32451  0.79154  0.43776  1.0000
  C   C39       1.0  0.96633  0.54422  0.50399  1.0000
  C   C40       1.0  0.93070  0.48246  0.48263  1.0000
  C   C41       1.0  0.96521  0.41749  0.50328  1.0000
  C   C42       1.0  0.92952  0.39309  0.50946  1.0000
  C   C43       1.0  0.89771  0.40364  0.59950  1.0000
  C   C44       1.0  0.86497  0.37991  0.60972  1.0000
  C   C45       1.0  0.86193  0.34504  0.52808  1.0000
  C   C46       1.0  0.89400  0.33370  0.44051  1.0000
  C   C47       1.0  0.92712  0.35696  0.43305  1.0000
  C   C48       1.0  0.82604  0.32227  0.53525  1.0000
  H   H23       1.0  0.90344  0.46738  0.46424  1.0000
  H   H24       1.0  0.89942  0.43004  0.66644  1.0000
  H   H25       1.0  0.84136  0.38837  0.68338  1.0000
  H   H26       1.0  0.89206  0.30660  0.37723  1.0000
  H   H27       1.0  0.95104  0.34733  0.36270  1.0000
  H   H28       1.0  0.80699  0.32869  0.62952  1.0000
  N   N6        1.0  0.81738  0.29666  0.43552  1.0000
  C   C49       1.0  0.53878  0.95989  0.50784  1.0000
  C   C50       1.0  0.57238  0.02304  0.48640  1.0000
  C   C51       1.0  0.53539  0.08620  0.50690  1.0000
  C   C52       1.0  0.67411  0.17960  0.53378  1.0000
  H   H29       1.0  0.59906  0.03956  0.47169  1.0000
  H   H30       1.0  0.69287  0.17595  0.63153  1.0000
  N   N7        1.0  0.68346  0.20243  0.42211  1.0000
  C   C53       1.0  0.03742  0.45913  0.50540  1.0000
  C   C54       1.0  0.07307  0.52121  0.49228  1.0000
  C   C55       1.0  0.03847  0.58515  0.51536  1.0000
  C   C56       1.0  0.07418  0.60927  0.51624  1.0000
  C   C57       1.0  0.10539  0.60216  0.61414  1.0000
  C   C58       1.0  0.13680  0.62778  0.61655  1.0000
  C   C59       1.0  0.13890  0.66023  0.51739  1.0000
  C   C60       1.0  0.10825  0.66701  0.41729  1.0000
  C   C61       1.0  0.07626  0.64226  0.41886  1.0000
  C   C62       1.0  0.17344  0.68513  0.52058  1.0000
  H   H31       1.0  0.10018  0.53702  0.47827  1.0000
  H   H32       1.0  0.10400  0.57747  0.69301  1.0000
  H   H33       1.0  0.16001  0.62294  0.69704  1.0000
  H   H34       1.0  0.10987  0.69147  0.33759  1.0000
  H   H35       1.0  0.05280  0.64706  0.33946  1.0000
  H   H36       1.0  0.18547  0.69049  0.63104  1.0000
  N   N8        1.0  0.18966  0.69878  0.40123  1.0000
  C   C63       1.0  0.49941  0.10509  0.51153  1.0000
  C   C64       1.0  0.50234  0.98026  0.50638  1.0000
  H   H37       1.0  0.49874  0.13702  0.52237  1.0000
  C   C65       1.0  0.00303  0.60521  0.51730  1.0000
  C   C66       1.0  0.00149  0.48039  0.50444  1.0000
  H   H38       1.0  0.00318  0.63710  0.52806  1.0000
  C   C67       1.0  0.50352  0.89790  0.52340  1.0000
  C   C68       1.0  0.50147  0.02247  0.50423  1.0000
  H   H39       1.0  0.50390  0.86602  0.53724  1.0000
  C   C69       1.0  0.00091  0.39799  0.50861  1.0000
  C   C70       1.0  0.00198  0.52264  0.50679  1.0000
  H   H40       1.0  0.00101  0.36607  0.51846  1.0000
  C   C71       1.0  0.46280  0.95825  0.00959  1.0000
  C   C72       1.0  0.42693  0.02030  0.99705  1.0000
  C   C73       1.0  0.46179  0.08445  0.01686  1.0000
  C   C74       1.0  0.42629  0.10873  0.01869  1.0000
  C   C75       1.0  0.39472  0.10090  0.11416  1.0000
  C   C76       1.0  0.36294  0.12609  0.11731  1.0000
  C   C77       1.0  0.36106  0.15937  0.02230  1.0000
  C   C78       1.0  0.39275  0.16750  0.92723  1.0000
  C   C79       1.0  0.42461  0.14273  0.92621  1.0000
  C   C80       1.0  0.32720  0.18515  0.02318  1.0000
  H   H41       1.0  0.39961  0.03584  0.98504  1.0000
  H   H42       1.0  0.39627  0.07585  0.19118  1.0000
  H   H43       1.0  0.33955  0.12052  0.19641  1.0000
  H   H44       1.0  0.39132  0.19323  0.85365  1.0000
  H   H45       1.0  0.44822  0.14855  0.84865  1.0000
  H   H46       1.0  0.30917  0.18431  0.12395  1.0000
  N   N9        1.0  0.31988  0.20858  0.91259  1.0000
  C   C81       1.0  0.96216  0.45787  0.00923  1.0000
  C   C82       1.0  0.92752  0.52064  0.00282  1.0000
  C   C83       1.0  0.96324  0.58421  0.02364  1.0000
  C   C84       1.0  0.92779  0.60873  0.02516  1.0000
  C   C85       1.0  0.89571  0.59968  0.11774  1.0000
  C   C86       1.0  0.86324  0.62388  0.11882  1.0000
  C   C87       1.0  0.86128  0.65737  0.02482  1.0000
  C   C88       1.0  0.89324  0.66697  0.93353  1.0000
  C   C89       1.0  0.92610  0.64327  0.93542  1.0000
  C   C90       1.0  0.82617  0.68142  0.02444  1.0000
  H   H47       1.0  0.90043  0.53662  0.99184  1.0000
  H   H48       1.0  0.89729  0.57441  0.19391  1.0000
  H   H49       1.0  0.83920  0.61731  0.19440  1.0000
  H   H50       1.0  0.89165  0.69302  0.86116  1.0000
  H   H51       1.0  0.95044  0.65065  0.86227  1.0000
  H   H52       1.0  0.81089  0.68411  0.13086  1.0000
  N   N10       1.0  0.81338  0.69848  0.90486  1.0000
  C   C91       1.0  0.53376  0.04329  0.01004  1.0000
  C   C92       1.0  0.56960  0.98145  0.99500  1.0000
  C   C93       1.0  0.53506  0.91695  0.01507  1.0000
  C   C94       1.0  0.57101  0.89300  0.01879  1.0000
  C   C95       1.0  0.60196  0.90080  0.11663  1.0000
  C   C96       1.0  0.63471  0.87684  0.11964  1.0000
  C   C97       1.0  0.63825  0.84465  0.02367  1.0000
  C   C98       1.0  0.60721  0.83643  0.92735  1.0000
  C   C99       1.0  0.57420  0.85977  0.92670  1.0000
  C   C100      1.0  0.67354  0.82090  0.02765  1.0000
  H   H53       1.0  0.59695  0.96610  0.98101  1.0000
  H   H54       1.0  0.59943  0.92471  0.19541  1.0000
  H   H55       1.0  0.65756  0.88224  0.20021  1.0000
  H   H56       1.0  0.60978  0.81151  0.85287  1.0000
  H   H57       1.0  0.55066  0.85318  0.85008  1.0000
  H   H58       1.0  0.69236  0.82528  0.12430  1.0000
  N   N11       1.0  0.68145  0.79576  0.92459  1.0000
  C   C101      1.0  0.03466  0.54161  0.01267  1.0000
  C   C102      1.0  0.06935  0.47912  0.99564  1.0000
  C   C103      1.0  0.03349  0.41535  0.01191  1.0000
  C   C104      1.0  0.17251  0.32049  0.02404  1.0000
  H   H59       1.0  0.09625  0.46301  0.98085  1.0000
  H   H60       1.0  0.18615  0.31604  0.13315  1.0000
  N   N12       1.0  0.18778  0.30664  0.90449  1.0000
  C   C105      1.0  0.46172  0.04267  0.01119  1.0000
  C   C106      1.0  0.42754  0.98011  0.99622  1.0000
  C   C107      1.0  0.46359  0.91636  0.01462  1.0000
  C   C108      1.0  0.32538  0.82082  0.04473  1.0000
  C   C109      1.0  0.78081  0.72303  0.91596  1.0000
  C   C110      1.0  0.74780  0.71513  0.82984  1.0000
  C   C111      1.0  0.74909  0.78135  0.01221  1.0000
  H   H61       1.0  0.40060  0.96416  0.98295  1.0000
  H   H62       1.0  0.30783  0.82469  0.14548  1.0000
  H   H63       1.0  0.74759  0.68975  0.75725  1.0000
  H   H64       1.0  0.75029  0.80714  0.08265  1.0000
  N   N13       1.0  0.31608  0.79667  0.94099  1.0000
  C   C112      1.0  0.96263  0.54236  0.01721  1.0000
  C   C113      1.0  0.92732  0.48049  0.99866  1.0000
  C   C114      1.0  0.96216  0.41594  0.00791  1.0000
  C   C115      1.0  0.92645  0.39191  0.01042  1.0000
  C   C116      1.0  0.89559  0.40031  0.10786  1.0000
  C   C117      1.0  0.86320  0.37620  0.11598  1.0000
  C   C118      1.0  0.85997  0.34307  0.02456  1.0000
  C   C119      1.0  0.89085  0.33434  0.92651  1.0000
  C   C120      1.0  0.92351  0.35817  0.92052  1.0000
  C   C121      1.0  0.82500  0.31891  0.03148  1.0000
  C   C122      1.0  0.28634  0.23206  0.91475  1.0000
  C   C123      1.0  0.28921  0.27121  0.86031  1.0000
  C   C124      1.0  0.21789  0.24312  0.96390  1.0000
  H   H65       1.0  0.90015  0.46506  0.98393  1.0000
  H   H66       1.0  0.89821  0.42520  0.18208  1.0000
  H   H67       1.0  0.84034  0.38254  0.19653  1.0000
  H   H68       1.0  0.88822  0.30889  0.85486  1.0000
  H   H69       1.0  0.94672  0.35156  0.84217  1.0000
  H   H70       1.0  0.80551  0.32440  0.12574  1.0000
  H   H71       1.0  0.31734  0.28166  0.81952  1.0000
  H   H72       1.0  0.18986  0.23234  0.00307  1.0000
  N   N14       1.0  0.81811  0.29280  0.93176  1.0000
  C   C125      1.0  0.53484  0.95889  0.00966  1.0000
  C   C126      1.0  0.56904  0.02171  0.99479  1.0000
  C   C127      1.0  0.53300  0.08511  0.01572  1.0000
  C   C128      1.0  0.67051  0.18112  0.01565  1.0000
  C   C129      1.0  0.22110  0.28257  0.91355  1.0000
  C   C130      1.0  0.25728  0.29627  0.86038  1.0000
  C   C131      1.0  0.24994  0.21818  0.96429  1.0000
  H   H73       1.0  0.59580  0.03814  0.98047  1.0000
  H   H74       1.0  0.68633  0.18155  0.12126  1.0000
  H   H75       1.0  0.26030  0.32679  0.82005  1.0000
  H   H76       1.0  0.24680  0.18765  0.00244  1.0000
  N   N15       1.0  0.68363  0.19954  0.89867  1.0000
  C   C132      1.0  0.03416  0.45727  0.01033  1.0000
  C   C133      1.0  0.06950  0.51936  0.99509  1.0000
  C   C134      1.0  0.03448  0.58343  0.01950  1.0000
  C   C135      1.0  0.06999  0.60767  0.02021  1.0000
  C   C136      1.0  0.10164  0.59885  0.11396  1.0000
  C   C137      1.0  0.13360  0.62365  0.11731  1.0000
  C   C138      1.0  0.13580  0.65711  0.02310  1.0000
  C   C139      1.0  0.10418  0.66626  0.92970  1.0000
  C   C140      1.0  0.07166  0.64224  0.92981  1.0000
  C   C141      1.0  0.17104  0.68081  0.02651  1.0000
  C   C142      1.0  0.71553  0.77311  0.92852  1.0000
  C   C143      1.0  0.71583  0.73979  0.83703  1.0000
  C   C144      1.0  0.78117  0.75656  0.00632  1.0000
  H   H77       1.0  0.09660  0.53503  0.97816  1.0000
  H   H78       1.0  0.10008  0.57344  0.18985  1.0000
  H   H79       1.0  0.15704  0.61777  0.19596  1.0000
  H   H80       1.0  0.10561  0.69227  0.85684  1.0000
  H   H81       1.0  0.04734  0.64919  0.85615  1.0000
  H   H82       1.0  0.18754  0.67974  0.13055  1.0000
  H   H83       1.0  0.69017  0.73415  0.77017  1.0000
  H   H84       1.0  0.80709  0.76321  0.07013  1.0000
  N   N16       1.0  0.18277  0.70144  0.91291  1.0000
  C   C145      1.0  0.49724  0.10438  0.01933  1.0000
  C   C146      1.0  0.49855  0.97965  0.01099  1.0000
  H   H85       1.0  0.49677  0.13626  0.02925  1.0000
  C   C147      1.0  0.99905  0.60337  0.02559  1.0000
  C   C148      1.0  0.99826  0.47867  0.01279  1.0000
  H   H86       1.0  0.99958  0.63522  0.03697  1.0000
  C   C149      1.0  0.49946  0.89711  0.01654  1.0000
  C   C150      1.0  0.49796  0.02189  0.01149  1.0000
  H   H87       1.0  0.49990  0.86517  0.02628  1.0000
  C   C151      1.0  0.99772  0.39609  0.00844  1.0000
  C   C152      1.0  0.99848  0.52089  0.01573  1.0000
  H   H88       1.0  0.99753  0.36409  0.01269  1.0000
  C  Sn1       1.0  0.24721  0.76780  0.07954  1.0000
  C   C153      1.0  0.27956  0.76376  0.98921  1.0000
  C  Sn2       1.0  0.27986  0.74376  0.85412  1.0000
  C  Sn3       1.0  0.24640  0.72308  0.80829  1.0000
  C   C154      1.0  0.21336  0.72281  0.89857  1.0000
  C  Sn4       1.0  0.21375  0.74711  0.03371  1.0000
  O  Te1       1.0  0.24756  0.78799  0.21414  1.0000
  O  Te2       1.0  0.31326  0.74445  0.76574  1.0000
  O  Te3       1.0  0.24607  0.70287  0.67357  1.0000
  O  Te4       1.0  0.18037  0.74643  0.12205  1.0000
  Mg  Mg1       1.0  0.29858  0.71250  0.59187  1.0000
  Mg  Mg2       1.0  0.19501  0.77839  0.29589  1.0000
  C  Sn5       1.0  0.59084  0.16997  0.93944  1.0000
  C   C155      1.0  0.62472  0.17055  0.02758  1.0000
  C  Sn6       1.0  0.63206  0.13564  0.10707  1.0000
  C  Sn7       1.0  0.60571  0.10379  0.09821  1.0000
  C   C156      1.0  0.57256  0.10753  0.01010  1.0000
  C  Sn8       1.0  0.56449  0.13812  0.93058  1.0000
  O  Te5       1.0  0.58408  0.20515  0.86092  1.0000
  O  Te6       1.0  0.66541  0.13261  0.19448  1.0000
  O  Te7       1.0  0.61249  0.06860  0.17683  1.0000
  O  Te8       1.0  0.53116  0.14116  0.84320  1.0000
  Mg  Mg3       1.0  0.66192  0.07870  0.28066  1.0000
  Mg  Mg4       1.0  0.53463  0.19504  0.75692  1.0000
  C  Sn9       1.0  0.76251  0.78323  0.49321  1.0000
  C   C157      1.0  0.72762  0.78048  0.41537  1.0000
  C  Sn10      1.0  0.71725  0.74537  0.34707  1.0000
  C  Sn11      1.0  0.74226  0.71231  0.35684  1.0000
  C   C158      1.0  0.77711  0.71507  0.43466  1.0000
  C  Sn12      1.0  0.78751  0.75017  0.50298  1.0000
  O  Te9       1.0  0.77229  0.81861  0.56064  1.0000
  O  Te10      1.0  0.68224  0.74334  0.26983  1.0000
  O  Te11      1.0  0.73245  0.67691  0.28932  1.0000
  O  Te12      1.0  0.82250  0.75221  0.58020  1.0000
  Mg  Mg5       1.0  0.68168  0.68867  0.19676  1.0000
  Mg  Mg6       1.0  0.82308  0.80685  0.65338  1.0000
  C  Sn13      1.0  0.10366  0.34737  0.88145  1.0000
  C   C159      1.0  0.13514  0.34938  0.97875  1.0000
  C  Sn14      1.0  0.13276  0.37421  0.11222  1.0000
  C  Sn15      1.0  0.09746  0.39308  0.14927  1.0000
  C   C160      1.0  0.06600  0.39106  0.05202  1.0000
  C  Sn16      1.0  0.06836  0.36624  0.91850  1.0000
  O  Te13      1.0  0.10740  0.32670  0.74862  1.0000
  O  Te14      1.0  0.16463  0.37582  0.20769  1.0000
  O  Te15      1.0  0.09374  0.41376  0.28222  1.0000
  O  Te16      1.0  0.03651  0.36462  0.82308  1.0000
  Mg  Mg7       1.0  0.14528  0.40755  0.37578  1.0000
  Mg  Mg8       1.0  0.05582  0.33289  0.65501  1.0000
  C  Sn17      1.0  0.76392  0.20837  0.88194  1.0000
  C   C161      1.0  0.72670  0.21535  0.93712  1.0000
  C  Sn18      1.0  0.71583  0.25309  0.98050  1.0000
  C  Sn19      1.0  0.74272  0.28451  0.96839  1.0000
  C   C162      1.0  0.77991  0.27752  0.91322  1.0000
  C  Sn20      1.0  0.79080  0.23979  0.86984  1.0000
  O  Te17      1.0  0.77415  0.17041  0.83923  1.0000
  O  Te18      1.0  0.67917  0.26367  0.03538  1.0000
  O  Te19      1.0  0.73316  0.32681  0.01117  1.0000
  O  Te20      1.0  0.82814  0.23353  0.81497  1.0000
  Mg  Mg9       1.0  0.67890  0.32058  0.07911  1.0000
  Mg  Mg10      1.0  0.82844  0.17663  0.77113  1.0000
  C  Sn21      1.0  0.12615  0.37843  0.65483  1.0000
  C   C163      1.0  0.13354  0.34465  0.57241  1.0000
  C  Sn22      1.0  0.11089  0.33590  0.44827  1.0000
  C  Sn23      1.0  0.08024  0.36145  0.40555  1.0000
  C   C164      1.0  0.07287  0.39520  0.48792  1.0000
  C  Sn24      1.0  0.09549  0.40398  0.61210  1.0000
  O  Te21      1.0  0.14916  0.38660  0.77853  1.0000
  O  Te22      1.0  0.11883  0.30196  0.36766  1.0000
  O  Te23      1.0  0.05722  0.35325  0.28173  1.0000
  O  Te24      1.0  0.08758  0.43790  0.69268  1.0000
  Mg  Mg11      1.0  0.07939  0.30350  0.20760  1.0000
  Mg  Mg12      1.0  0.12701  0.43640  0.85270  1.0000
  C  Sn25      1.0  0.39818  0.88925  0.66022  1.0000
  C   C165      1.0  0.43058  0.88691  0.56695  1.0000
  C  Sn26      1.0  0.42971  0.86361  0.43989  1.0000
  C  Sn27      1.0  0.39574  0.84223  0.40527  1.0000
  C   C166      1.0  0.36336  0.84458  0.49850  1.0000
  C  Sn28      1.0  0.36420  0.86787  0.62561  1.0000
  O  Te25      1.0  0.39969  0.91273  0.78666  1.0000
  O  Te26      1.0  0.46246  0.86172  0.34836  1.0000
  O  Te27      1.0  0.39424  0.81874  0.27872  1.0000
  O  Te28      1.0  0.33147  0.86977  0.71709  1.0000
  Mg  Mg13      1.0  0.44623  0.82570  0.18863  1.0000
  Mg  Mg14      1.0  0.34766  0.90579  0.87679  1.0000
  C  Sn29      1.0  0.59435  0.17188  0.46128  1.0000
  C   C167      1.0  0.62727  0.16502  0.54833  1.0000
  C  Sn30      1.0  0.63363  0.12808  0.61454  1.0000
  C  Sn31      1.0  0.60654  0.09735  0.59323  1.0000
  C   C168      1.0  0.57365  0.10422  0.50621  1.0000
  C  Sn32      1.0  0.56726  0.14115  0.43997  1.0000
  O  Te29      1.0  0.58858  0.20903  0.39614  1.0000
  O  Te30      1.0  0.66675  0.12193  0.70113  1.0000
  O  Te31      1.0  0.61235  0.06018  0.65846  1.0000
  O  Te32      1.0  0.53417  0.14730  0.35340  1.0000
  Mg  Mg15      1.0  0.66182  0.06623  0.76665  1.0000
  Mg  Mg16      1.0  0.53908  0.20298  0.28777  1.0000
  C  Sn33      1.0  0.39470  0.89049  0.16212  1.0000
  C   C169      1.0  0.42646  0.88704  0.06615  1.0000
  C  Sn34      1.0  0.42346  0.85922  0.93991  1.0000
  C  Sn35      1.0  0.38871  0.83876  0.90888  1.0000
  C   C170      1.0  0.35768  0.84654  0.00480  1.0000
  C  Sn36      1.0  0.35995  0.87003  0.13110  1.0000
  O  Te33      1.0  0.39764  0.91415  0.28768  1.0000
  O  Te34      1.0  0.45560  0.85622  0.84564  1.0000
  O  Te35      1.0  0.38580  0.81509  0.78321  1.0000
  O  Te36      1.0  0.32783  0.87304  0.22531  1.0000
  Mg  Mg17      1.0  0.43741  0.82039  0.68845  1.0000
  Mg  Mg18      1.0  0.34598  0.90887  0.38249  1.0000
  C  Sn37      1.0  0.38544  0.09206  0.60630  1.0000
  C   C171      1.0  0.41738  0.09923  0.51368  1.0000
  C  Sn38      1.0  0.42238  0.13603  0.44455  1.0000
  C  Sn39      1.0  0.39489  0.16631  0.46855  1.0000
  C   C172      1.0  0.36297  0.15914  0.56113  1.0000
  C  Sn40      1.0  0.35795  0.12234  0.63029  1.0000
  O  Te37      1.0  0.38102  0.05505  0.67427  1.0000
  O  Te38      1.0  0.45454  0.14249  0.35240  1.0000
  O  Te39      1.0  0.39933  0.20334  0.40047  1.0000
  O  Te40      1.0  0.32581  0.11588  0.72241  1.0000
  Mg  Mg19      1.0  0.44789  0.19783  0.28477  1.0000
  Mg  Mg20      1.0  0.33244  0.06056  0.79016  1.0000
  C  Sn41      1.0  0.88803  0.59804  0.58783  1.0000
  C   C173      1.0  0.92116  0.60273  0.49941  1.0000
  C  Sn42      1.0  0.92815  0.63827  0.42352  1.0000
  C  Sn43      1.0  0.90147  0.66979  0.43634  1.0000
  C   C174      1.0  0.86837  0.66509  0.52474  1.0000
  C  Sn44      1.0  0.86135  0.62956  0.60066  1.0000
  O  Te41      1.0  0.88163  0.56225  0.66271  1.0000
  O  Te42      1.0  0.96147  0.64226  0.33574  1.0000
  O  Te43      1.0  0.90790  0.70560  0.36136  1.0000
  O  Te44      1.0  0.82806  0.62557  0.68840  1.0000
  Mg  Mg21      1.0  0.95744  0.69673  0.25543  1.0000
  Mg  Mg22      1.0  0.83207  0.57112  0.76882  1.0000
  C  Sn45      1.0  0.22960  0.24700  0.58501  1.0000
  C   C175      1.0  0.22261  0.27509  0.47256  1.0000
  C  Sn46      1.0  0.24216  0.27322  0.33605  1.0000
  C  Sn47      1.0  0.26924  0.24260  0.31137  1.0000
  C   C176      1.0  0.27622  0.21452  0.42377  1.0000
  C  Sn48      1.0  0.25669  0.21638  0.56034  1.0000
  O  Te45      1.0  0.20973  0.24945  0.72061  1.0000
  O  Te46      1.0  0.23469  0.30165  0.22534  1.0000
  O  Te47      1.0  0.28912  0.24017  0.17564  1.0000
  O  Te48      1.0  0.26414  0.18797  0.67099  1.0000
  Mg  Mg23      1.0  0.26901  0.28578  0.05936  1.0000
  Mg  Mg24      1.0  0.22982  0.20380  0.83698  1.0000
