data_image0
_chemical_formula_structural       N8C16H8C16H8N4C16H8C23H10C10H10C5O8N4Cu2N8C16H8C16H8N4C16H8C17H6C6H6C3O8N4Cu2SnCSn2CSnTe4Mg2SnCSn2CSnTe4Mg2SnCSn2CSnTe4Mg2SnCSn2CSnTe4Mg2SnCSn2CSnTe4Mg2SnCSn2CSnTe4Mg2SnCSn2CSnTe4Mg2SnCSn2CSnTe4Mg2
_chemical_formula_sum              "N32 C176 H80 O16 Cu4 Sn32 Te32 Mg16"
_cell_length_a       23.4832
_cell_length_b       36.0902
_cell_length_c       9.80145
_cell_angle_alpha    77.3927
_cell_angle_beta     99.168
_cell_angle_gamma    90.4119

_symmetry_space_group_name_H-M    'P1'
_space_group_IT_number       1

loop_
  _space_group_symop_operation_xyz
  'x, y, z'

loop_
  _atom_site_type_symbol
  _atom_site_label
  _atom_site_symmetry_multiplicity
  _atom_site_fract_x
  _atom_site_fract_y
  _atom_site_fract_z
  _atom_site_occupancy
  N   N1        1.0  0.22998  0.68803  0.22841  1.0000
  N   N2        1.0  0.73787  0.18171  0.28989  1.0000
  N   N3        1.0  0.76229  0.31270  0.23962  1.0000
  N   N4        1.0  0.26448  0.81362  0.26729  1.0000
  N   N5        1.0  0.76276  0.68589  0.21783  1.0000
  N   N6        1.0  0.26927  0.18696  0.23194  1.0000
  N   N7        1.0  0.23290  0.31277  0.25767  1.0000
  N   N8        1.0  0.74292  0.81059  0.27802  1.0000
  C   C1        1.0  0.24189  0.72467  0.22155  1.0000
  C   C2        1.0  0.74787  0.21786  0.29588  1.0000
  C   C3        1.0  0.75588  0.27508  0.27481  1.0000
  C   C4        1.0  0.25269  0.77962  0.23848  1.0000
  C   C5        1.0  0.75571  0.72015  0.24403  1.0000
  C   C6        1.0  0.25812  0.22103  0.25597  1.0000
  C   C7        1.0  0.24587  0.27604  0.26864  1.0000
  C   C8        1.0  0.75186  0.77530  0.26141  1.0000
  C   C9        1.0  0.20142  0.75669  0.21163  1.0000
  C   C10       1.0  0.70959  0.24866  0.31104  1.0000
  C   C11       1.0  0.79488  0.24420  0.26415  1.0000
  C   C12       1.0  0.29322  0.74812  0.24665  1.0000
  C   C13       1.0  0.79191  0.75302  0.20505  1.0000
  C   C14       1.0  0.29723  0.25277  0.26495  1.0000
  C   C15       1.0  0.20679  0.24402  0.26201  1.0000
  C   C16       1.0  0.71604  0.74223  0.30097  1.0000
  H   H1        1.0  0.18742  0.68153  0.22425  1.0000
  H   H2        1.0  0.69627  0.17330  0.29061  1.0000
  H   H3        1.0  0.79942  0.32055  0.20094  1.0000
  H   H4        1.0  0.30690  0.81787  0.30119  1.0000
  H   H5        1.0  0.79620  0.68420  0.16430  1.0000
  H   H6        1.0  0.30986  0.18271  0.21232  1.0000
  H   H7        1.0  0.18990  0.32014  0.23967  1.0000
  H   H8        1.0  0.70850  0.81352  0.32720  1.0000
  C   C17       1.0  0.95385  0.92242  0.25559  1.0000
  C   C18       1.0  0.45113  0.42213  0.23032  1.0000
  C   C19       1.0  0.05016  0.08006  0.22098  1.0000
  C   C20       1.0  0.54667  0.57800  0.25404  1.0000
  C   C21       1.0  0.04773  0.92196  0.25997  1.0000
  C   C22       1.0  0.54467  0.42240  0.22454  1.0000
  C   C23       1.0  0.95634  0.08039  0.22566  1.0000
  C   C24       1.0  0.45302  0.57841  0.26413  1.0000
  C   C25       1.0  0.97400  0.88341  0.30406  1.0000
  C   C26       1.0  0.46565  0.38753  0.19049  1.0000
  C   C27       1.0  0.03093  0.11920  0.19263  1.0000
  C   C28       1.0  0.52996  0.61648  0.25176  1.0000
  C   C29       1.0  0.03214  0.88307  0.30479  1.0000
  C   C30       1.0  0.52347  0.38779  0.18646  1.0000
  C   C31       1.0  0.97333  0.11938  0.19854  1.0000
  C   C32       1.0  0.47342  0.61620  0.26749  1.0000
  H   H9        1.0  0.94742  0.85954  0.33616  1.0000
  H   H10       1.0  0.43583  0.36597  0.16658  1.0000
  H   H11       1.0  0.05747  0.14352  0.16775  1.0000
  H   H12       1.0  0.55743  0.64074  0.24135  1.0000
  H   H13       1.0  0.06186  0.85883  0.33706  1.0000
  H   H14       1.0  0.54913  0.36662  0.15854  1.0000
  H   H15       1.0  0.94467  0.14381  0.18160  1.0000
  H   H16       1.0  0.44908  0.63989  0.28210  1.0000
  N   N9        1.0  0.41400  0.49934  0.26220  1.0000
  N   N10       1.0  0.91476  0.00244  0.22065  1.0000
  N   N11       1.0  0.58538  0.49822  0.26045  1.0000
  N   N12       1.0  0.08845  0.00088  0.23666  1.0000
  C   C33       1.0  0.37928  0.46804  0.26448  1.0000
  C   C34       1.0  0.87828  0.97260  0.20820  1.0000
  C   C35       1.0  0.62129  0.52763  0.28043  1.0000
  C   C36       1.0  0.12527  0.03063  0.24350  1.0000
  C   C37       1.0  0.62127  0.46699  0.27181  1.0000
  C   C38       1.0  0.12286  0.96999  0.23664  1.0000
  C   C39       1.0  0.37791  0.53006  0.25808  1.0000
  C   C40       1.0  0.87993  0.03304  0.22253  1.0000
  C   C41       1.0  0.32085  0.47909  0.26783  1.0000
  C   C42       1.0  0.81936  0.98544  0.19287  1.0000
  C   C43       1.0  0.68051  0.51415  0.31628  1.0000
  C   C44       1.0  0.18398  0.01765  0.25269  1.0000
  C   C45       1.0  0.68049  0.47659  0.31071  1.0000
  C   C46       1.0  0.18228  0.98064  0.24133  1.0000
  C   C47       1.0  0.31940  0.51744  0.25535  1.0000
  C   C48       1.0  0.82044  0.02211  0.20860  1.0000
  H   H17       1.0  0.28499  0.46027  0.27427  1.0000
  H   H18       1.0  0.78236  0.96815  0.17481  1.0000
  H   H19       1.0  0.71664  0.53118  0.34582  1.0000
  H   H20       1.0  0.22172  0.03449  0.26646  1.0000
  H   H21       1.0  0.71703  0.45694  0.33184  1.0000
  H   H22       1.0  0.21795  0.96214  0.23867  1.0000
  H   H23       1.0  0.28148  0.53533  0.24275  1.0000
  H   H24       1.0  0.78389  0.03973  0.21101  1.0000
  C   C49       1.0  0.89567  0.93437  0.22891  1.0000
  C   C50       1.0  0.39564  0.43172  0.25077  1.0000
  C   C51       1.0  0.10811  0.06830  0.23513  1.0000
  C   C52       1.0  0.60400  0.56563  0.26492  1.0000
  C   C53       1.0  0.10415  0.93282  0.24602  1.0000
  C   C54       1.0  0.60308  0.43163  0.24567  1.0000
  C   C55       1.0  0.89903  0.06956  0.23210  1.0000
  C   C56       1.0  0.39480  0.56773  0.25936  1.0000
  C   C57       1.0  0.85279  0.90413  0.23182  1.0000
  C   C58       1.0  0.35252  0.40127  0.25479  1.0000
  C   C59       1.0  0.15205  0.09764  0.23899  1.0000
  C   C60       1.0  0.64913  0.59460  0.26220  1.0000
  C   C61       1.0  0.85730  0.09886  0.24628  1.0000
  C   C62       1.0  0.36656  0.36491  0.34227  1.0000
  C   C63       1.0  0.80796  0.90205  0.31191  1.0000
  C   C64       1.0  0.65346  0.61986  0.35341  1.0000
  C   C65       1.0  0.14958  0.12439  0.32299  1.0000
  C   C66       1.0  0.80539  0.10794  0.15049  1.0000
  C   C67       1.0  0.68736  0.59894  0.16425  1.0000
  C   C68       1.0  0.19580  0.10111  0.15529  1.0000
  C   C69       1.0  0.29768  0.40717  0.16946  1.0000
  C   C70       1.0  0.85783  0.87479  0.15988  1.0000
  C   C71       1.0  0.87014  0.11903  0.35528  1.0000
  H   H25       1.0  0.80495  0.92299  0.37502  1.0000
  H   H26       1.0  0.40825  0.35997  0.41175  1.0000
  H   H27       1.0  0.11800  0.12138  0.39384  1.0000
  H   H28       1.0  0.62618  0.61588  0.43394  1.0000
  H   H29       1.0  0.79717  0.09454  0.06041  1.0000
  H   H30       1.0  0.19723  0.08212  0.08432  1.0000
  H   H31       1.0  0.68515  0.57999  0.09205  1.0000
  H   H32       1.0  0.89067  0.87626  0.09279  1.0000
  H   H33       1.0  0.28719  0.43415  0.09442  1.0000
  H   H34       1.0  0.91011  0.11259  0.43146  1.0000
  C   C72       1.0  0.77051  0.87200  0.32084  1.0000
  C   C73       1.0  0.32803  0.33523  0.34407  1.0000
  C   C74       1.0  0.18724  0.15415  0.31879  1.0000
  C   C75       1.0  0.69094  0.64986  0.34188  1.0000
  C   C76       1.0  0.76643  0.13553  0.16298  1.0000
  C   C77       1.0  0.23507  0.13005  0.15363  1.0000
  C   C78       1.0  0.72603  0.62836  0.15294  1.0000
  C   C79       1.0  0.82183  0.84395  0.17115  1.0000
  C   C80       1.0  0.25792  0.37823  0.17431  1.0000
  C   C81       1.0  0.83144  0.14683  0.36811  1.0000
  H   H35       1.0  0.73811  0.87003  0.38930  1.0000
  H   H36       1.0  0.33982  0.30741  0.41264  1.0000
  H   H37       1.0  0.18345  0.17473  0.38255  1.0000
  H   H38       1.0  0.69175  0.66980  0.41029  1.0000
  H   H39       1.0  0.72799  0.14345  0.08326  1.0000
  H   H40       1.0  0.26742  0.13290  0.08482  1.0000
  H   H41       1.0  0.75365  0.63220  0.07268  1.0000
  H   H42       1.0  0.82812  0.82117  0.11788  1.0000
  H   H43       1.0  0.21599  0.38294  0.10619  1.0000
  H   H44       1.0  0.84084  0.16165  0.45421  1.0000
  C   C82       1.0  0.77842  0.84218  0.25447  1.0000
  C   C83       1.0  0.27332  0.34219  0.25989  1.0000
  C   C84       1.0  0.23037  0.15697  0.23452  1.0000
  C   C85       1.0  0.72662  0.65456  0.23905  1.0000
  C   C86       1.0  0.77923  0.15459  0.27390  1.0000
  O   O1        1.0  0.14855  0.76027  0.19588  1.0000
  O   O2        1.0  0.66010  0.25063  0.33629  1.0000
  O   O3        1.0  0.84334  0.24247  0.23389  1.0000
  O   O4        1.0  0.34627  0.74466  0.27259  1.0000
  O   O5        1.0  0.83518  0.75722  0.14763  1.0000
  O   O6        1.0  0.34923  0.25703  0.26403  1.0000
  O   O7        1.0  0.15452  0.24024  0.25688  1.0000
  O   O8        1.0  0.67193  0.73745  0.35592  1.0000
  N   N13       1.0  0.99999  0.94584  0.23709  1.0000
  N   N14       1.0  0.49934  0.44382  0.24542  1.0000
  N   N15       1.0  0.00348  0.05670  0.23466  1.0000
  N   N16       1.0  0.49908  0.55519  0.25916  1.0000
  Cu  Cu1       1.0  0.00148  0.00159  0.23127  1.0000
  Cu  Cu2       1.0  0.49910  0.49936  0.25667  1.0000
  N   N17       1.0  0.23772  0.69112  0.70001  1.0000
  N   N18       1.0  0.73011  0.18330  0.76532  1.0000
  N   N19       1.0  0.76283  0.31186  0.75829  1.0000
  N   N20       1.0  0.26176  0.81026  0.82138  1.0000
  N   N21       1.0  0.76997  0.68495  0.75118  1.0000
  N   N22       1.0  0.26152  0.18893  0.71093  1.0000
  N   N23       1.0  0.22650  0.31218  0.77023  1.0000
  N   N24       1.0  0.73576  0.81390  0.74169  1.0000
  C   C87       1.0  0.24619  0.72380  0.74302  1.0000
  C   C88       1.0  0.74310  0.21836  0.78330  1.0000
  C   C89       1.0  0.75389  0.27458  0.78035  1.0000
  C   C90       1.0  0.25101  0.77692  0.78588  1.0000
  C   C91       1.0  0.75798  0.72230  0.73157  1.0000
  C   C92       1.0  0.25031  0.22335  0.73204  1.0000
  C   C93       1.0  0.23873  0.27769  0.75301  1.0000
  C   C94       1.0  0.74657  0.77871  0.72751  1.0000
  C   C95       1.0  0.20500  0.75647  0.71192  1.0000
  C   C96       1.0  0.70435  0.24924  0.79225  1.0000
  C   C97       1.0  0.79340  0.24331  0.77533  1.0000
  C   C98       1.0  0.29006  0.74361  0.82388  1.0000
  C   C99       1.0  0.79784  0.75441  0.73360  1.0000
  C   C100      1.0  0.28653  0.25701  0.71621  1.0000
  C   C101      1.0  0.20206  0.24422  0.76579  1.0000
  C   C102      1.0  0.70693  0.74709  0.72292  1.0000
  H   H45       1.0  0.19979  0.69035  0.63325  1.0000
  H   H46       1.0  0.68716  0.17766  0.74698  1.0000
  H   H47       1.0  0.80182  0.31969  0.73002  1.0000
  H   H48       1.0  0.29982  0.81077  0.88799  1.0000
  H   H49       1.0  0.81286  0.67766  0.77007  1.0000
  H   H50       1.0  0.29794  0.18649  0.66826  1.0000
  H   H51       1.0  0.18873  0.31505  0.80707  1.0000
  H   H52       1.0  0.69463  0.81948  0.75511  1.0000
  C   C103      1.0  0.95448  0.92199  0.75166  1.0000
  C   C104      1.0  0.44687  0.42053  0.72999  1.0000
  C   C105      1.0  0.04485  0.08040  0.73457  1.0000
  C   C106      1.0  0.54716  0.57607  0.76232  1.0000
  C   C107      1.0  0.04815  0.92252  0.74644  1.0000
  C   C108      1.0  0.54106  0.42013  0.73146  1.0000
  C   C109      1.0  0.95124  0.08009  0.74248  1.0000
  C   C110      1.0  0.45193  0.57678  0.75760  1.0000
  C   C111      1.0  0.97405  0.88301  0.77352  1.0000
  C   C112      1.0  0.46309  0.38313  0.71635  1.0000
  C   C113      1.0  0.02492  0.11948  0.70450  1.0000
  C   C114      1.0  0.52999  0.61354  0.77101  1.0000
  C   C115      1.0  0.03182  0.88341  0.77033  1.0000
  C   C116      1.0  0.52121  0.38299  0.71611  1.0000
  C   C117      1.0  0.96720  0.11927  0.70992  1.0000
  C   C118      1.0  0.47159  0.61469  0.75925  1.0000
  H   H53       1.0  0.94775  0.85834  0.79344  1.0000
  H   H54       1.0  0.43390  0.35996  0.70921  1.0000
  H   H55       1.0  0.05120  0.14400  0.67985  1.0000
  H   H56       1.0  0.55831  0.63658  0.78385  1.0000
  H   H57       1.0  0.06076  0.85919  0.78654  1.0000
  H   H58       1.0  0.54835  0.35991  0.70623  1.0000
  H   H59       1.0  0.93788  0.14343  0.69231  1.0000
  H   H60       1.0  0.44543  0.63970  0.75142  1.0000
  N   N25       1.0  0.41049  0.49831  0.75300  1.0000
  N   N26       1.0  0.91417  0.00046  0.75645  1.0000
  N   N27       1.0  0.58348  0.49859  0.74396  1.0000
  N   N28       1.0  0.08592  0.00154  0.74230  1.0000
  C   C119      1.0  0.37534  0.46713  0.75836  1.0000
  C   C120      1.0  0.87914  0.96952  0.75511  1.0000
  C   C121      1.0  0.61979  0.52922  0.74097  1.0000
  C   C122      1.0  0.12141  0.03199  0.74897  1.0000
  C   C123      1.0  0.61762  0.46771  0.74018  1.0000
  C   C124      1.0  0.12128  0.97180  0.73521  1.0000
  C   C125      1.0  0.37671  0.52793  0.76813  1.0000
  C   C126      1.0  0.87922  0.03003  0.76872  1.0000
  C   C127      1.0  0.31863  0.47731  0.77927  1.0000
  C   C128      1.0  0.82131  0.98009  0.76719  1.0000
  C   C129      1.0  0.67712  0.51729  0.72974  1.0000
  C   C130      1.0  0.18053  0.02057  0.75212  1.0000
  C   C131      1.0  0.67629  0.47919  0.73436  1.0000
  C   C132      1.0  0.17987  0.98392  0.73687  1.0000
  C   C133      1.0  0.31976  0.51459  0.78800  1.0000
  C   C134      1.0  0.82182  0.01689  0.78118  1.0000
  H   H61       1.0  0.28283  0.45827  0.78753  1.0000
  H   H62       1.0  0.78471  0.96194  0.76557  1.0000
  H   H63       1.0  0.71340  0.53564  0.71822  1.0000
  H   H64       1.0  0.21764  0.03822  0.76283  1.0000
  H   H65       1.0  0.71184  0.46049  0.73209  1.0000
  H   H66       1.0  0.21579  0.96670  0.72721  1.0000
  H   H67       1.0  0.28526  0.53122  0.80855  1.0000
  H   H68       1.0  0.78674  0.03364  0.79895  1.0000
  C   C135      1.0  0.89679  0.93273  0.74956  1.0000
  C   C136      1.0  0.39091  0.43097  0.74308  1.0000
  C   C137      1.0  0.10292  0.06925  0.74363  1.0000
  C   C138      1.0  0.60411  0.56610  0.75190  1.0000
  C   C139      1.0  0.10460  0.93442  0.73738  1.0000
  C   C140      1.0  0.59900  0.43069  0.73760  1.0000
  C   C141      1.0  0.89527  0.06796  0.75957  1.0000
  C   C142      1.0  0.39431  0.56560  0.76363  1.0000
  C   C143      1.0  0.34599  0.40114  0.74661  1.0000
  C   C144      1.0  0.64263  0.40028  0.74308  1.0000
  C   C145      1.0  0.85153  0.09718  0.76273  1.0000
  C   C146      1.0  0.32608  0.38538  0.87338  1.0000
  C   C147      1.0  0.67796  0.40250  0.63893  1.0000
  C   C148      1.0  0.79723  0.10079  0.67577  1.0000
  C   C149      1.0  0.32398  0.38746  0.62579  1.0000
  C   C150      1.0  0.86370  0.12298  0.85195  1.0000
  C   C151      1.0  0.64891  0.36794  0.85424  1.0000
  H   H69       1.0  0.34299  0.39517  0.96851  1.0000
  H   H70       1.0  0.67275  0.42651  0.54932  1.0000
  H   H71       1.0  0.78762  0.08249  0.60123  1.0000
  H   H72       1.0  0.33857  0.39946  0.52652  1.0000
  H   H73       1.0  0.90405  0.11984  0.92547  1.0000
  H   H74       1.0  0.62369  0.36616  0.93885  1.0000
  C   C152      1.0  0.28580  0.35671  0.88009  1.0000
  C   C153      1.0  0.71793  0.37355  0.64590  1.0000
  C   C154      1.0  0.75697  0.12877  0.67715  1.0000
  C   C155      1.0  0.28408  0.35844  0.63161  1.0000
  C   C156      1.0  0.82446  0.15170  0.85180  1.0000
  C   C157      1.0  0.68807  0.33847  0.86137  1.0000
  H   H75       1.0  0.27211  0.34370  0.97962  1.0000
  H   H76       1.0  0.74327  0.37493  0.56152  1.0000
  H   H77       1.0  0.71603  0.13185  0.60578  1.0000
  H   H78       1.0  0.26794  0.34777  0.53776  1.0000
  H   H79       1.0  0.83454  0.17106  0.92250  1.0000
  H   H80       1.0  0.69265  0.31396  0.94930  1.0000
  C   C158      1.0  0.26528  0.34311  0.75926  1.0000
  C   C159      1.0  0.72241  0.34127  0.75566  1.0000
  C   C160      1.0  0.77070  0.15458  0.76461  1.0000
  O   O9        1.0  0.15518  0.76170  0.65018  1.0000
  O   O10       1.0  0.65271  0.25146  0.80129  1.0000
  O   O11       1.0  0.84426  0.24091  0.76076  1.0000
  O   O12       1.0  0.34003  0.73787  0.89004  1.0000
  O   O13       1.0  0.85016  0.75852  0.74087  1.0000
  O   O14       1.0  0.33445  0.26359  0.68213  1.0000
  O   O15       1.0  0.15273  0.23864  0.79147  1.0000
  O   O16       1.0  0.65443  0.74408  0.72010  1.0000
  N   N29       1.0  0.00056  0.94582  0.73883  1.0000
  N   N30       1.0  0.49488  0.44306  0.73699  1.0000
  N   N31       1.0  0.99883  0.05668  0.75127  1.0000
  N   N32       1.0  0.49891  0.55354  0.75737  1.0000
  Cu  Cu3       1.0  0.99977  0.00123  0.74660  1.0000
  Cu  Cu4       1.0  0.49666  0.49869  0.74714  1.0000
  C  Sn1       1.0  0.31697  0.65794  0.12437  1.0000
  C   C161      1.0  0.27080  0.65772  0.19855  1.0000
  C  Sn2       1.0  0.26502  0.62761  0.31182  1.0000
  C  Sn3       1.0  0.30628  0.59709  0.35186  1.0000
  C   C162      1.0  0.35242  0.59732  0.27771  1.0000
  C  Sn4       1.0  0.35823  0.62742  0.16440  1.0000
  O  Te1       1.0  0.32189  0.68834  0.01148  1.0000
  O  Te2       1.0  0.21848  0.62801  0.38435  1.0000
  O  Te3       1.0  0.30132  0.56667  0.46484  1.0000
  O  Te4       1.0  0.40474  0.62703  0.09192  1.0000
  Mg  Mg1       1.0  0.23045  0.58016  0.53087  1.0000
  Mg  Mg2       1.0  0.45868  0.61590  0.94544  1.0000
  C  Sn5       1.0  0.68450  0.39855  0.11632  1.0000
  C   C163      1.0  0.64401  0.39886  0.20627  1.0000
  C  Sn6       1.0  0.64657  0.37096  0.33093  1.0000
  C  Sn7       1.0  0.69054  0.34214  0.36649  1.0000
  C   C164      1.0  0.73100  0.34183  0.27658  1.0000
  C  Sn8       1.0  0.72846  0.36973  0.15188  1.0000
  O  Te5       1.0  0.74696  0.36776  0.99224  1.0000
  O  Te6       1.0  0.60560  0.37186  0.41915  1.0000
  O  Te7       1.0  0.69389  0.31394  0.49068  1.0000
  O  Te8       1.0  0.76940  0.36884  0.06370  1.0000
  Mg  Mg3       1.0  0.62824  0.32727  0.57658  1.0000
  Mg  Mg4       1.0  0.81267  0.35445  0.90629  1.0000
  C  Sn9       1.0  0.18045  0.86086  0.63668  1.0000
  C   C165      1.0  0.22710  0.84958  0.74584  1.0000
  C  Sn10      1.0  0.23332  0.86493  0.86629  1.0000
  C  Sn11      1.0  0.19205  0.89210  0.87793  1.0000
  C   C166      1.0  0.14544  0.90335  0.76882  1.0000
  C  Sn12      1.0  0.13918  0.88803  0.64831  1.0000
  O  Te9       1.0  0.17509  0.84514  0.51723  1.0000
  O  Te10      1.0  0.28032  0.85322  0.97402  1.0000
  O  Te11      1.0  0.19745  0.90781  0.99751  1.0000
  O  Te12      1.0  0.09221  0.89971  0.54064  1.0000
  Mg  Mg5       1.0  0.20301  0.94178  0.11594  1.0000
  Mg  Mg6       1.0  0.10361  0.87013  0.39872  1.0000
  C  Sn13      1.0  0.83674  0.87753  0.61509  1.0000
  C   C167      1.0  0.84174  0.90455  0.69871  1.0000
  C  Sn14      1.0  0.81700  0.89858  0.82195  1.0000
  C  Sn15      1.0  0.78665  0.86489  0.86251  1.0000
  C   C168      1.0  0.78166  0.83789  0.77893  1.0000
  C  Sn16      1.0  0.80638  0.84384  0.65566  1.0000
  O  Te13      1.0  0.86182  0.88409  0.49233  1.0000
  O  Te14      1.0  0.82257  0.92601  0.90380  1.0000
  O  Te15      1.0  0.76156  0.85834  0.98539  1.0000
  O  Te16      1.0  0.80084  0.81643  0.57384  1.0000
  Mg  Mg7       1.0  0.71504  0.96308  0.06186  1.0000
  Mg  Mg8       1.0  0.84252  0.83829  0.41581  1.0000
  C  Sn17      1.0  0.17361  0.86183  0.12351  1.0000
  C   C169      1.0  0.22277  0.84986  0.22431  1.0000
  C  Sn18      1.0  0.23121  0.86197  0.35186  1.0000
  C  Sn19      1.0  0.18962  0.88652  0.37929  1.0000
  C   C170      1.0  0.14048  0.89847  0.27854  1.0000
  C  Sn20      1.0  0.13202  0.88638  0.15093  1.0000
  O  Te17      1.0  0.23191  0.79040  0.99672  1.0000
  O  Te18      1.0  0.28071  0.84964  0.45100  1.0000
  O  Te19      1.0  0.19720  0.89898  0.50620  1.0000
  O  Te20      1.0  0.08255  0.89870  0.05185  1.0000
  Mg  Mg9       1.0  0.27161  0.87437  0.60805  1.0000
  Mg  Mg10      1.0  0.15744  0.81499  0.89480  1.0000
  C  Sn21      1.0  0.21037  0.09977  0.67930  1.0000
  C   C171      1.0  0.16455  0.09335  0.75592  1.0000
  C  Sn22      1.0  0.14539  0.12175  0.81581  1.0000
  C  Sn23      1.0  0.17255  0.15732  0.79871  1.0000
  C   C172      1.0  0.21833  0.16373  0.72211  1.0000
  C  Sn24      1.0  0.23753  0.13534  0.66219  1.0000
  O  Te21      1.0  0.22881  0.07097  0.62033  1.0000
  O  Te22      1.0  0.09952  0.11465  0.89200  1.0000
  O  Te23      1.0  0.15407  0.18612  0.85776  1.0000
  O  Te24      1.0  0.28336  0.14242  0.58603  1.0000
  Mg  Mg11      1.0  0.08994  0.16284  0.95224  1.0000
  Mg  Mg12      1.0  0.29296  0.09427  0.52568  1.0000
  C  Sn25      1.0  0.25562  0.61506  0.69049  1.0000
  C   C173      1.0  0.26298  0.64580  0.75645  1.0000
  C  Sn26      1.0  0.31774  0.65401  0.82019  1.0000
  C  Sn27      1.0  0.36617  0.63103  0.81790  1.0000
  C   C174      1.0  0.35881  0.60032  0.75195  1.0000
  C  Sn28      1.0  0.30406  0.59208  0.68819  1.0000
  O  Te25      1.0  0.20048  0.60738  0.62742  1.0000
  O  Te26      1.0  0.32401  0.68488  0.88553  1.0000
  O  Te27      1.0  0.42134  0.63874  0.88104  1.0000
  O  Te28      1.0  0.29777  0.56124  0.62287  1.0000
  Mg  Mg13      1.0  0.40788  0.68390  0.95678  1.0000
  Mg  Mg14      1.0  0.21393  0.56221  0.55152  1.0000
  C  Sn29      1.0  0.74452  0.60757  0.80335  1.0000
  C   C175      1.0  0.73843  0.64516  0.72622  1.0000
  C  Sn30      1.0  0.68374  0.66114  0.66601  1.0000
  C  Sn31      1.0  0.63408  0.63911  0.68331  1.0000
  C   C176      1.0  0.64018  0.60154  0.76041  1.0000
  C  Sn32      1.0  0.69486  0.58553  0.82065  1.0000
  O  Te29      1.0  0.79961  0.59217  0.86262  1.0000
  O  Te30      1.0  0.67874  0.69878  0.58932  1.0000
  O  Te31      1.0  0.57896  0.65454  0.62395  1.0000
  O  Te32      1.0  0.69987  0.54792  0.89731  1.0000
  Mg  Mg15      1.0  0.59441  0.70704  0.52881  1.0000
  Mg  Mg16      1.0  0.78418  0.53964  0.95793  1.0000
