data_image0
_chemical_formula_structural       C6H3C12H8C12H2C2H2C2H2C2H2C2H2C2H2C2H2C2H2C2H2C2H2NC6H3C6H4C10H2C2H2C2H2C2H2C2H2C2H2C2H2C2H2NC2Sn2C2HTe2HMgC2Sn2C2HTe2HMgC2Sn2C2HTe2HMgC2Sn2C2HTe2HMgC2Sn2C2HTe2HMgC2Sn2C2HTe2HMgC2Sn2C2HTe2HMgC2Sn2C2HTe2HMgC2Sn2C2HTe2HMgC2Sn2C2HTe2HMgC2Sn2C2HTe2HMgC2Sn2C2HTe2HMg
_chemical_formula_sum              "C132 H78 N2 Sn24 Te24 Mg12"
_cell_length_a       35.1279
_cell_length_b       35.0319
_cell_length_c       8.10377
_cell_angle_alpha    84.6914
_cell_angle_beta     83.6453
_cell_angle_gamma    122.01

_symmetry_space_group_name_H-M    'P1'
_space_group_IT_number       1

loop_
  _space_group_symop_operation_xyz
  'x, y, z'

loop_
  _atom_site_type_symbol
  _atom_site_label
  _atom_site_symmetry_multiplicity
  _atom_site_fract_x
  _atom_site_fract_y
  _atom_site_fract_z
  _atom_site_occupancy
  C   C1        1.0  0.71010  0.35813  0.27838  1.0000
  C   C2        1.0  0.64152  0.35892  0.25781  1.0000
  C   C3        1.0  0.64212  0.29069  0.21831  1.0000
  C   C4        1.0  0.68733  0.31334  0.24487  1.0000
  C   C5        1.0  0.68667  0.38045  0.28505  1.0000
  C   C6        1.0  0.61983  0.31418  0.22404  1.0000
  H   H1        1.0  0.70513  0.29569  0.24056  1.0000
  H   H2        1.0  0.70306  0.41428  0.31907  1.0000
  H   H3        1.0  0.58559  0.29795  0.19576  1.0000
  C   C7        1.0  0.28743  0.63848  0.27256  1.0000
  C   C8        1.0  0.36128  0.71218  0.22498  1.0000
  C   C9        1.0  0.34636  0.73710  0.13940  1.0000
  C   C10       1.0  0.26277  0.59635  0.21815  1.0000
  C   C11       1.0  0.26294  0.65551  0.34926  1.0000
  C   C12       1.0  0.40189  0.73651  0.28719  1.0000
  C   C13       1.0  0.37042  0.78448  0.12204  1.0000
  C   C14       1.0  0.21539  0.57238  0.23862  1.0000
  C   C15       1.0  0.21573  0.63208  0.36425  1.0000
  C   C16       1.0  0.42678  0.78406  0.26432  1.0000
  C   C17       1.0  0.19091  0.59002  0.30955  1.0000
  C   C18       1.0  0.41121  0.80901  0.18356  1.0000
  H   H4        1.0  0.31576  0.71903  0.08600  1.0000
  H   H5        1.0  0.28104  0.58266  0.15834  1.0000
  H   H6        1.0  0.28126  0.68713  0.39810  1.0000
  H   H7        1.0  0.41339  0.71763  0.35590  1.0000
  H   H8        1.0  0.35849  0.80310  0.05345  1.0000
  H   H9        1.0  0.19701  0.54035  0.19186  1.0000
  H   H10       1.0  0.19746  0.64556  0.42659  1.0000
  H   H11       1.0  0.45736  0.80214  0.31866  1.0000
  C   C19       1.0  0.43010  0.57102  0.23623  1.0000
  C   C20       1.0  0.47739  0.52573  0.24170  1.0000
  C   C21       1.0  0.54681  0.45404  0.25714  1.0000
  C   C22       1.0  0.50137  0.50165  0.24649  1.0000
  C   C23       1.0  0.43589  0.85914  0.16793  1.0000
  C   C24       1.0  0.48189  0.95549  0.14340  1.0000
  C   C25       1.0  0.14090  0.56520  0.32496  1.0000
  C   C26       1.0  0.04463  0.51714  0.34977  1.0000
  C   C27       1.0  0.89969  0.44620  0.35221  1.0000
  C   C28       1.0  0.99479  0.49227  0.35715  1.0000
  C   C29       1.0  0.47723  0.59528  0.23719  1.0000
  C   C30       1.0  0.50043  0.57310  0.23985  1.0000
  H   H12       1.0  0.49529  0.63170  0.24112  1.0000
  H   H13       1.0  0.53662  0.59233  0.24573  1.0000
  C   C31       1.0  0.50352  0.43583  0.35767  1.0000
  C   C32       1.0  0.48126  0.45890  0.35139  1.0000
  H   H14       1.0  0.48723  0.40354  0.44483  1.0000
  H   H15       1.0  0.44850  0.44467  0.43432  1.0000
  C   C33       1.0  0.41221  0.87935  0.22023  1.0000
  C   C34       1.0  0.43482  0.92650  0.20954  1.0000
  H   H16       1.0  0.37600  0.85733  0.27545  1.0000
  H   H17       1.0  0.41629  0.94131  0.25745  1.0000
  C   C35       1.0  0.11260  0.51853  0.39710  1.0000
  C   C36       1.0  0.06537  0.49500  0.40974  1.0000
  H   H18       1.0  0.12805  0.50113  0.44727  1.0000
  H   H19       1.0  0.04402  0.45918  0.47008  1.0000
  C   C37       1.0  0.92395  0.49010  0.39382  1.0000
  C   C38       1.0  0.97041  0.51260  0.39738  1.0000
  H   H20       1.0  0.90569  0.50627  0.42744  1.0000
  H   H21       1.0  0.98816  0.54603  0.43465  1.0000
  C   C39       1.0  0.40708  0.52370  0.23758  1.0000
  C   C40       1.0  0.43026  0.50155  0.24057  1.0000
  H   H22       1.0  0.37087  0.50455  0.23187  1.0000
  H   H23       1.0  0.41198  0.46506  0.23823  1.0000
  C   C41       1.0  0.56626  0.49640  0.14931  1.0000
  C   C42       1.0  0.54444  0.51993  0.14529  1.0000
  H   H24       1.0  0.59833  0.51058  0.06211  1.0000
  H   H25       1.0  0.56018  0.55218  0.05818  1.0000
  C   C43       1.0  0.12020  0.58747  0.26632  1.0000
  C   C44       1.0  0.07304  0.56384  0.27751  1.0000
  H   H26       1.0  0.14176  0.62328  0.20578  1.0000
  H   H27       1.0  0.05787  0.58120  0.22445  1.0000
  C   C45       1.0  0.92379  0.42529  0.31708  1.0000
  C   C46       1.0  0.97041  0.44798  0.31923  1.0000
  H   H28       1.0  0.90607  0.39173  0.28088  1.0000
  H   H29       1.0  0.98888  0.43203  0.28495  1.0000
  C   C47       1.0  0.48301  0.88794  0.10260  1.0000
  C   C48       1.0  0.50549  0.93525  0.08969  1.0000
  H   H30       1.0  0.50173  0.87302  0.05747  1.0000
  H   H31       1.0  0.54175  0.95709  0.03474  1.0000
  N   N1        1.0  0.33581  0.66356  0.24964  1.0000
  C   C49       1.0  0.70946  0.35784  0.78423  1.0000
  C   C50       1.0  0.64179  0.36029  0.76300  1.0000
  C   C51       1.0  0.64043  0.29101  0.72747  1.0000
  C   C52       1.0  0.68568  0.31283  0.75349  1.0000
  C   C53       1.0  0.68697  0.38113  0.78869  1.0000
  C   C54       1.0  0.61901  0.31523  0.73243  1.0000
  H   H32       1.0  0.70251  0.29423  0.74919  1.0000
  H   H33       1.0  0.70432  0.41529  0.81981  1.0000
  H   H34       1.0  0.58471  0.29945  0.70494  1.0000
  C   C55       1.0  0.75739  0.38072  0.80833  1.0000
  C   C56       1.0  0.77401  0.35700  0.89088  1.0000
  C   C57       1.0  0.78856  0.42759  0.74355  1.0000
  C   C58       1.0  0.81981  0.37899  0.90581  1.0000
  C   C59       1.0  0.83421  0.44964  0.75942  1.0000
  C   C60       1.0  0.85097  0.42572  0.83891  1.0000
  H   H35       1.0  0.75049  0.32110  0.94774  1.0000
  H   H36       1.0  0.77697  0.44637  0.67403  1.0000
  H   H37       1.0  0.83170  0.36021  0.97358  1.0000
  H   H38       1.0  0.85785  0.48559  0.70369  1.0000
  C   C61       1.0  0.42712  0.56859  0.74098  1.0000
  C   C62       1.0  0.47292  0.52183  0.74544  1.0000
  C   C63       1.0  0.54625  0.45421  0.76115  1.0000
  C   C64       1.0  0.49748  0.49834  0.74983  1.0000
  C   C65       1.0  0.43541  0.85991  0.67550  1.0000
  C   C66       1.0  0.48343  0.95632  0.65677  1.0000
  C   C67       1.0  0.14052  0.56732  0.82758  1.0000
  C   C68       1.0  0.04435  0.51929  0.84951  1.0000
  C   C69       1.0  0.47377  0.59169  0.74987  1.0000
  C   C70       1.0  0.49622  0.56880  0.75130  1.0000
  H   H39       1.0  0.49215  0.62767  0.76055  1.0000
  H   H40       1.0  0.53203  0.58684  0.76275  1.0000
  C   C71       1.0  0.50313  0.43508  0.86455  1.0000
  C   C72       1.0  0.47905  0.45630  0.85716  1.0000
  H   H41       1.0  0.48866  0.40374  0.95559  1.0000
  H   H42       1.0  0.44630  0.44125  0.94122  1.0000
  C   C73       1.0  0.41205  0.88116  0.71785  1.0000
  C   C74       1.0  0.43564  0.92832  0.70970  1.0000
  H   H43       1.0  0.37520  0.86020  0.76261  1.0000
  H   H44       1.0  0.41726  0.94400  0.74952  1.0000
  C   C75       1.0  0.11247  0.51986  0.88628  1.0000
  C   C76       1.0  0.06526  0.49636  0.89851  1.0000
  H   H45       1.0  0.12808  0.50177  0.92736  1.0000
  H   H46       1.0  0.04407  0.45986  0.94928  1.0000
  C   C77       1.0  0.40397  0.52174  0.73296  1.0000
  C   C78       1.0  0.42630  0.49867  0.73617  1.0000
  H   H47       1.0  0.36833  0.50378  0.71953  1.0000
  H   H48       1.0  0.40774  0.46255  0.72712  1.0000
  C   C79       1.0  0.56430  0.49615  0.65284  1.0000
  C   C80       1.0  0.54083  0.51801  0.64869  1.0000
  H   H49       1.0  0.59666  0.51128  0.56643  1.0000
  H   H50       1.0  0.55534  0.54998  0.56116  1.0000
  C   C81       1.0  0.11958  0.59046  0.78217  1.0000
  C   C82       1.0  0.07250  0.56683  0.79170  1.0000
  H   H51       1.0  0.14080  0.62710  0.73393  1.0000
  H   H52       1.0  0.05712  0.58500  0.74894  1.0000
  C   C83       1.0  0.48323  0.88777  0.62479  1.0000
  C   C84       1.0  0.50674  0.93503  0.61442  1.0000
  H   H53       1.0  0.50177  0.87187  0.59016  1.0000
  H   H54       1.0  0.54354  0.95595  0.56909  1.0000
  N   N2        1.0  0.33547  0.66417  0.75696  1.0000
  C   C85       1.0  0.42685  0.77444  0.77479  1.0000
  C   C86       1.0  0.41765  0.80465  0.69210  1.0000
  C  Sn1       1.0  0.37747  0.78786  0.62753  1.0000
  C  Sn2       1.0  0.34598  0.73992  0.64632  1.0000
  C   C87       1.0  0.35549  0.70998  0.72935  1.0000
  C   C88       1.0  0.39581  0.72715  0.79344  1.0000
  H   H55       1.0  0.45803  0.78772  0.82446  1.0000
  O  Te1       1.0  0.36881  0.81852  0.54521  1.0000
  O  Te2       1.0  0.30556  0.72221  0.58305  1.0000
  H   H56       1.0  0.40291  0.70376  0.85755  1.0000
  Mg  Mg1       1.0  0.30905  0.77779  0.48060  1.0000
  C   C89       1.0  0.64028  0.21767  0.59340  1.0000
  C   C90       1.0  0.62199  0.24079  0.66414  1.0000
  C  Sn3       1.0  0.57600  0.21683  0.74218  1.0000
  C  Sn4       1.0  0.54790  0.16886  0.74936  1.0000
  C   C91       1.0  0.56653  0.14604  0.67832  1.0000
  C   C92       1.0  0.61259  0.17035  0.60049  1.0000
  H   H57       1.0  0.67592  0.23647  0.53326  1.0000
  O  Te3       1.0  0.55828  0.24046  0.81216  1.0000
  O  Te4       1.0  0.50183  0.14407  0.82665  1.0000
  H   H58       1.0  0.62675  0.15244  0.54583  1.0000
  Mg  Mg2       1.0  0.49347  0.19160  0.90381  1.0000
  C   C93       1.0  0.64175  0.44262  0.68871  1.0000
  C   C94       1.0  0.62538  0.39726  0.75564  1.0000
  C  Sn5       1.0  0.57912  0.36659  0.82626  1.0000
  C  Sn6       1.0  0.54876  0.38171  0.82971  1.0000
  C   C95       1.0  0.56547  0.42715  0.76231  1.0000
  C   C96       1.0  0.61183  0.45756  0.69200  1.0000
  H   H59       1.0  0.67761  0.46615  0.63422  1.0000
  O  Te5       1.0  0.56334  0.32139  0.89263  1.0000
  O  Te6       1.0  0.50236  0.35177  0.89947  1.0000
  H   H60       1.0  0.62449  0.49267  0.64009  1.0000
  Mg  Mg3       1.0  0.49719  0.29350  0.97415  1.0000
  C   C97       1.0  0.54851  0.17559  0.25070  1.0000
  C   C98       1.0  0.56476  0.15429  0.15432  1.0000
  C  Sn7       1.0  0.61065  0.17821  0.07520  1.0000
  C  Sn8       1.0  0.64076  0.22429  0.09316  1.0000
  C   C99       1.0  0.62418  0.24527  0.18995  1.0000
  C   C100      1.0  0.57819  0.22103  0.26853  1.0000
  H   H61       1.0  0.51293  0.15683  0.31159  1.0000
  O  Te7       1.0  0.57507  0.10777  0.97932  1.0000
  O  Te8       1.0  0.68679  0.24897  0.01549  1.0000
  H   H62       1.0  0.56562  0.23752  0.34323  1.0000
  Mg  Mg4       1.0  0.64068  0.15572  0.89785  1.0000
  C   C101      1.0  0.42332  0.64679  0.11507  1.0000
  C   C102      1.0  0.41215  0.60637  0.21596  1.0000
  C  Sn9       1.0  0.37129  0.58086  0.33404  1.0000
  C  Sn10      1.0  0.34113  0.59617  0.35112  1.0000
  C   C103      1.0  0.35261  0.63664  0.24951  1.0000
  C   C104      1.0  0.39359  0.66191  0.13178  1.0000
  H   H63       1.0  0.45501  0.66634  0.02392  1.0000
  O  Te9       1.0  0.36066  0.54056  0.43388  1.0000
  O  Te10      1.0  0.30007  0.57132  0.46809  1.0000
  H   H64       1.0  0.40222  0.69319  0.05361  1.0000
  Mg  Mg5       1.0  0.30073  0.51859  0.57534  1.0000
  C   C105      1.0  0.25158  0.65555  0.87422  1.0000
  C   C106      1.0  0.28132  0.64314  0.81009  1.0000
  C  Sn11      1.0  0.26509  0.60444  0.73439  1.0000
  C  Sn12      1.0  0.21821  0.57772  0.72282  1.0000
  C   C107      1.0  0.18874  0.59044  0.78726  1.0000
  C   C108      1.0  0.20534  0.62923  0.86281  1.0000
  H   H65       1.0  0.26442  0.68557  0.93260  1.0000
  O  Te11      1.0  0.29527  0.59252  0.67102  1.0000
  O  Te12      1.0  0.20109  0.53888  0.64774  1.0000
  H   H66       1.0  0.18231  0.63884  0.91236  1.0000
  Mg  Mg6       1.0  0.25566  0.53659  0.58003  1.0000
  C   C109      1.0  0.49730  0.06502  0.58638  1.0000
  C   C110      1.0  0.53623  0.09487  0.64867  1.0000
  C  Sn13      1.0  0.56329  0.08018  0.70545  1.0000
  C  Sn14      1.0  0.55108  0.03476  0.69956  1.0000
  C   C111      1.0  0.51208  0.00518  0.63691  1.0000
  C   C112      1.0  0.48523  0.02022  0.58047  1.0000
  H   H67       1.0  0.47653  0.07667  0.54262  1.0000
  O  Te13      1.0  0.60207  0.11044  0.76736  1.0000
  O  Te14      1.0  0.57753  0.01920  0.75544  1.0000
  H   H68       1.0  0.45511  0.99711  0.53215  1.0000
  Mg  Mg7       1.0  0.62720  0.07324  0.82898  1.0000
  C   C113      1.0  0.62887  0.45326  0.18650  1.0000
  C   C114      1.0  0.58263  0.43606  0.24147  1.0000
  C  Sn15      1.0  0.55233  0.39021  0.31746  1.0000
  C  Sn16      1.0  0.56874  0.36111  0.33867  1.0000
  C   C115      1.0  0.61507  0.37865  0.28336  1.0000
  C   C116      1.0  0.64508  0.42459  0.20743  1.0000
  H   H69       1.0  0.65210  0.48881  0.12784  1.0000
  O  Te15      1.0  0.50623  0.37358  0.37159  1.0000
  O  Te16      1.0  0.53920  0.31514  0.41427  1.0000
  H   H70       1.0  0.68089  0.43790  0.16499  1.0000
  Mg  Mg8       1.0  0.47935  0.30847  0.46728  1.0000
  C   C117      1.0  0.33639  0.58485  0.85515  1.0000
  C   C118      1.0  0.35240  0.62959  0.78058  1.0000
  C  Sn17      1.0  0.39530  0.65662  0.67492  1.0000
  C  Sn18      1.0  0.42258  0.63842  0.64353  1.0000
  C   C119      1.0  0.40623  0.59361  0.71864  1.0000
  C   C120      1.0  0.36326  0.56687  0.82421  1.0000
  H   H71       1.0  0.30313  0.56414  0.93676  1.0000
  O  Te17      1.0  0.41078  0.70126  0.60149  1.0000
  O  Te18      1.0  0.46557  0.66469  0.53839  1.0000
  H   H72       1.0  0.35086  0.53222  0.88184  1.0000
  Mg  Mg9       1.0  0.47172  0.72363  0.46758  1.0000
  C   C121      1.0  0.96015  0.51582  0.89384  1.0000
  C   C122      1.0  0.98882  0.49959  0.87313  1.0000
  C  Sn19      1.0  0.97267  0.45681  0.82756  1.0000
  C  Sn20      1.0  0.92696  0.42986  0.80230  1.0000
  C   C123      1.0  0.89856  0.44641  0.82322  1.0000
  C   C124      1.0  0.91506  0.48927  0.86889  1.0000
  H   H73       1.0  0.97293  0.54899  0.92908  1.0000
  O  Te19      1.0  0.00177  0.44111  0.80745  1.0000
  O  Te20      1.0  0.90994  0.38698  0.75665  1.0000
  H   H74       1.0  0.89287  0.50183  0.88481  1.0000
  Mg  Mg10      1.0  0.96278  0.38045  0.74438  1.0000
  C   C125      1.0  0.80672  0.36692  0.41980  1.0000
  C   C126      1.0  0.84406  0.41102  0.34997  1.0000
  C  Sn21      1.0  0.83762  0.44241  0.25920  1.0000
  C  Sn22      1.0  0.79294  0.42931  0.23819  1.0000
  C   C127      1.0  0.75581  0.38512  0.30864  1.0000
  C   C128      1.0  0.76264  0.35398  0.39919  1.0000
  H   H75       1.0  0.81200  0.34283  0.48994  1.0000
  O  Te21      1.0  0.87531  0.48632  0.19022  1.0000
  O  Te22      1.0  0.78554  0.46001  0.14811  1.0000
  H   H76       1.0  0.73372  0.31985  0.45333  1.0000
  Mg  Mg11      1.0  0.84778  0.51595  0.07792  1.0000
  C   C129      1.0  0.49503  0.06432  0.09284  1.0000
  C   C130      1.0  0.53688  0.09448  0.13775  1.0000
  C  Sn23      1.0  0.56540  0.07974  0.17585  1.0000
  C  Sn24      1.0  0.55167  0.03394  0.16871  1.0000
  C   C131      1.0  0.50975  0.00404  0.12354  1.0000
  C   C132      1.0  0.48148  0.01914  0.08571  1.0000
  H   H77       1.0  0.47317  0.07600  0.06348  1.0000
  O  Te23      1.0  0.60709  0.11032  0.22054  1.0000
  O  Te24      1.0  0.57951  0.01832  0.20611  1.0000
  H   H78       1.0  0.97771  0.99579  0.05084  1.0000
  Mg  Mg12      1.0  0.63317  0.07289  0.26044  1.0000
