data_image0
_chemical_formula_structural       C6H3NC6H3NSnCSn2CSnTe4Mg2SnCSn2CSnTe4Mg2SnCSn2CSnTe4Mg2SnCSn2CSnTe4Mg2SnCSn2CSnTe4Mg2SnCSn2CSnTe4Mg2SnCSn2CSnTe4Mg2SnCSn2CSnTe4Mg2SnCSn2CSnTe4Mg2SnCSn2CSnTe4Mg2SnCSn2CSnTe4Mg2SnCSn2CSnTe4Mg2SnCSn2CSnTe4Mg2SnCSn2CSnTe4Mg2SnCSn2CSnTe4Mg2SnCSn2CSnTe4Mg2SnCSn2CSnTe4Mg2SnCSn2CSnTe4Mg2SnCSn2CSnTe4Mg2SnCSn2CSnTe4Mg2SnCSn2CSnTe4Mg2SnCSn2CSnTe4Mg2SnCSn2CSnTe4Mg2SnCSn2CSnTe4Mg2
_chemical_formula_sum              "C60 H6 N2 Sn96 Te96 Mg48"
_cell_length_a       35.1279
_cell_length_b       35.0319
_cell_length_c       8.10377
_cell_angle_alpha    84.6914
_cell_angle_beta     83.6453
_cell_angle_gamma    122.01

_symmetry_space_group_name_H-M    'P1'
_space_group_IT_number       1

loop_
  _space_group_symop_operation_xyz
  'x, y, z'

loop_
  _atom_site_type_symbol
  _atom_site_label
  _atom_site_symmetry_multiplicity
  _atom_site_fract_x
  _atom_site_fract_y
  _atom_site_fract_z
  _atom_site_occupancy
  C   C1        1.0  0.71010  0.35813  0.27838  1.0000
  C   C2        1.0  0.64152  0.35892  0.25781  1.0000
  C   C3        1.0  0.64212  0.29069  0.21831  1.0000
  C   C4        1.0  0.68733  0.31334  0.24487  1.0000
  C   C5        1.0  0.68667  0.38045  0.28505  1.0000
  C   C6        1.0  0.61983  0.31418  0.22404  1.0000
  H   H1        1.0  0.70513  0.29569  0.24056  1.0000
  H   H2        1.0  0.70306  0.41428  0.31907  1.0000
  H   H3        1.0  0.58559  0.29795  0.19576  1.0000
  N   N1        1.0  0.33581  0.66356  0.24964  1.0000
  C   C7        1.0  0.70946  0.35784  0.78423  1.0000
  C   C8        1.0  0.64179  0.36029  0.76300  1.0000
  C   C9        1.0  0.64043  0.29101  0.72747  1.0000
  C   C10       1.0  0.68568  0.31283  0.75349  1.0000
  C   C11       1.0  0.68697  0.38113  0.78869  1.0000
  C   C12       1.0  0.61901  0.31523  0.73243  1.0000
  H   H4        1.0  0.70251  0.29423  0.74919  1.0000
  H   H5        1.0  0.70432  0.41529  0.81981  1.0000
  H   H6        1.0  0.58471  0.29945  0.70494  1.0000
  N   N2        1.0  0.33547  0.66417  0.75696  1.0000
  C  Sn1       1.0  0.82339  0.45050  0.29381  1.0000
  C   C13       1.0  0.84401  0.43072  0.37153  1.0000
  C  Sn2       1.0  0.82191  0.38319  0.40834  1.0000
  C  Sn3       1.0  0.77832  0.35482  0.36651  1.0000
  C   C14       1.0  0.75773  0.37460  0.28882  1.0000
  C  Sn4       1.0  0.77980  0.42213  0.25198  1.0000
  O  Te1       1.0  0.84611  0.49810  0.25816  1.0000
  O  Te2       1.0  0.84320  0.36421  0.48614  1.0000
  O  Te3       1.0  0.75561  0.30718  0.40223  1.0000
  O  Te4       1.0  0.75854  0.44111  0.17420  1.0000
  Mg  Mg1       1.0  0.79858  0.29754  0.50909  1.0000
  Mg  Mg2       1.0  0.80314  0.50777  0.15112  1.0000
  C  Sn5       1.0  0.40202  0.74566  0.33286  1.0000
  C   C15       1.0  0.36211  0.71654  0.27421  1.0000
  C  Sn6       1.0  0.34784  0.73400  0.15065  1.0000
  C  Sn7       1.0  0.37401  0.78156  0.08422  1.0000
  C   C16       1.0  0.41389  0.81065  0.14283  1.0000
  C  Sn8       1.0  0.42819  0.79323  0.26643  1.0000
  O  Te5       1.0  0.41565  0.72746  0.45645  1.0000
  O  Te6       1.0  0.30781  0.70420  0.09405  1.0000
  O  Te7       1.0  0.30910  0.75110  0.96053  1.0000
  O  Te8       1.0  0.46820  0.82299  0.32300  1.0000
  Mg  Mg3       1.0  0.25211  0.69671  0.92399  1.0000
  Mg  Mg4       1.0  0.47269  0.78188  0.49298  1.0000
  C  Sn9       1.0  0.64169  0.44062  0.23483  1.0000
  C   C17       1.0  0.62363  0.39430  0.29169  1.0000
  C  Sn10      1.0  0.57638  0.36266  0.32655  1.0000
  C  Sn11      1.0  0.54656  0.37761  0.30402  1.0000
  C   C18       1.0  0.56462  0.42390  0.24717  1.0000
  C  Sn12      1.0  0.61187  0.45557  0.21231  1.0000
  O  Te9       1.0  0.68904  0.47165  0.20075  1.0000
  O  Te10      1.0  0.55913  0.31653  0.38330  1.0000
  O  Te11      1.0  0.49918  0.34653  0.33816  1.0000
  O  Te12      1.0  0.62912  0.50167  0.15556  1.0000
  Mg  Mg5       1.0  0.49213  0.28733  0.41269  1.0000
  Mg  Mg6       1.0  0.69611  0.53089  0.12605  1.0000
  C  Sn13      1.0  0.25139  0.64603  0.40380  1.0000
  C   C19       1.0  0.28081  0.63433  0.32975  1.0000
  C  Sn14      1.0  0.26579  0.60124  0.22648  1.0000
  C  Sn15      1.0  0.22042  0.57940  0.19652  1.0000
  C   C20       1.0  0.19103  0.59110  0.27053  1.0000
  C  Sn16      1.0  0.20602  0.62418  0.37384  1.0000
  O  Te13      1.0  0.26714  0.67920  0.50659  1.0000
  O  Te14      1.0  0.29583  0.59012  0.15389  1.0000
  O  Te15      1.0  0.20469  0.54620  0.09364  1.0000
  O  Te16      1.0  0.17601  0.63531  0.44639  1.0000
  Mg  Mg7       1.0  0.25843  0.54279  0.02322  1.0000
  Mg  Mg8       1.0  0.21337  0.68265  0.57699  1.0000
  C  Sn17      1.0  0.54760  0.17924  0.19690  1.0000
  C   C21       1.0  0.56579  0.15748  0.11437  1.0000
  C  Sn18      1.0  0.61305  0.17775  0.07666  1.0000
  C  Sn19      1.0  0.64275  0.22065  0.12247  1.0000
  C   C22       1.0  0.62455  0.24238  0.20497  1.0000
  C  Sn20      1.0  0.57729  0.22214  0.24271  1.0000
  O  Te17      1.0  0.50025  0.15835  0.23335  1.0000
  O  Te18      1.0  0.57919  0.10671  0.99403  1.0000
  O  Te19      1.0  0.69013  0.24154  0.08594  1.0000
  O  Te20      1.0  0.55991  0.24452  0.32531  1.0000
  Mg  Mg9       1.0  0.64613  0.14894  0.97185  1.0000
  Mg  Mg10      1.0  0.49297  0.20231  0.34763  1.0000
  C  Sn21      1.0  0.42836  0.65083  0.16351  1.0000
  C   C23       1.0  0.41412  0.60803  0.25361  1.0000
  C  Sn22      1.0  0.36866  0.57784  0.33495  1.0000
  C  Sn23      1.0  0.33674  0.59069  0.32597  1.0000
  C   C24       1.0  0.35098  0.63346  0.23590  1.0000
  C  Sn24      1.0  0.39645  0.66368  0.15454  1.0000
  O  Te21      1.0  0.47399  0.68046  0.08316  1.0000
  O  Te22      1.0  0.35523  0.53524  0.42431  1.0000
  O  Te23      1.0  0.29109  0.56101  0.40643  1.0000
  O  Te24      1.0  0.40987  0.70625  0.06520  1.0000
  Mg  Mg11      1.0  0.28932  0.50675  0.51252  1.0000
  Mg  Mg12      1.0  0.42452  0.68612  0.97687  1.0000
  C  Sn25      1.0  0.49539  0.57806  0.29065  1.0000
  C   C25       1.0  0.47821  0.53203  0.28534  1.0000
  C  Sn26      1.0  0.43612  0.50448  0.23753  1.0000
  C  Sn27      1.0  0.41068  0.52333  0.19400  1.0000
  C   C26       1.0  0.42786  0.56933  0.19929  1.0000
  C  Sn28      1.0  0.46995  0.59691  0.24712  1.0000
  O  Te25      1.0  0.53756  0.60497  0.33881  1.0000
  O  Te26      1.0  0.41964  0.45855  0.23323  1.0000
  O  Te27      1.0  0.36848  0.49637  0.14582  1.0000
  O  Te28      1.0  0.48644  0.64281  0.25140  1.0000
  Mg  Mg13      1.0  0.36047  0.43575  0.15938  1.0000
  Mg  Mg14      1.0  0.54561  0.66565  0.32514  1.0000
  C  Sn29      1.0  0.48991  0.45838  0.39728  1.0000
  C   C27       1.0  0.50373  0.49939  0.29356  1.0000
  C  Sn30      1.0  0.53843  0.51712  0.15147  1.0000
  C  Sn31      1.0  0.55973  0.49335  0.11215  1.0000
  C   C28       1.0  0.54590  0.45236  0.21582  1.0000
  C  Sn32      1.0  0.51121  0.43461  0.35796  1.0000
  O  Te29      1.0  0.45516  0.44128  0.53868  1.0000
  O  Te30      1.0  0.55167  0.55819  0.04972  1.0000
  O  Te31      1.0  0.54326  0.46185  0.97062  1.0000
  O  Te32      1.0  0.49796  0.39356  0.45966  1.0000
  Mg  Mg15      1.0  0.54933  0.51900  0.87082  1.0000
  Mg  Mg16      1.0  0.44904  0.38407  0.63854  1.0000
  C  Sn33      1.0  0.41130  0.89018  0.17655  1.0000
  C   C29       1.0  0.42960  0.86487  0.13004  1.0000
  C  Sn34      1.0  0.47683  0.88476  0.10122  1.0000
  C  Sn35      1.0  0.50640  0.93091  0.11936  1.0000
  C   C30       1.0  0.48811  0.95619  0.16587  1.0000
  C  Sn36      1.0  0.44088  0.93632  0.19469  1.0000
  O  Te33      1.0  0.36398  0.86959  0.20473  1.0000
  O  Te34      1.0  0.49431  0.85878  0.05478  1.0000
  O  Te35      1.0  0.55375  0.95149  0.09113  1.0000
  O  Te36      1.0  0.42339  0.96228  0.24113  1.0000
  Mg  Mg17      1.0  0.56117  0.90205  0.03029  1.0000
  Mg  Mg18      1.0  0.35654  0.91904  0.26574  1.0000
  C  Sn37      1.0  0.49046  0.04084  0.05021  1.0000
  C   C31       1.0  0.50719  0.01310  0.08306  1.0000
  C  Sn38      1.0  0.54502  0.02830  0.16137  1.0000
  C  Sn39      1.0  0.56657  0.07214  0.20792  1.0000
  C   C32       1.0  0.54984  0.09985  0.17510  1.0000
  C  Sn40      1.0  0.51201  0.08468  0.09676  1.0000
  O  Te37      1.0  0.40135  0.97631  0.97181  1.0000
  O  Te38      1.0  0.56113  0.99996  0.19286  1.0000
  O  Te39      1.0  0.60446  0.08802  0.28637  1.0000
  O  Te40      1.0  0.49590  0.11299  0.06530  1.0000
  Mg  Mg19      1.0  0.61372  0.03686  0.30265  1.0000
  Mg  Mg20      1.0  0.39206  0.02747  0.95560  1.0000
  C  Sn41      1.0  0.10345  0.50718  0.35986  1.0000
  C   C33       1.0  0.13615  0.55327  0.29325  1.0000
  C  Sn42      1.0  0.12295  0.58418  0.26467  1.0000
  C  Sn43      1.0  0.07607  0.56871  0.30360  1.0000
  C   C34       1.0  0.04340  0.52265  0.37020  1.0000
  C  Sn44      1.0  0.05658  0.49171  0.39878  1.0000
  O  Te41      1.0  0.11743  0.47689  0.38740  1.0000
  O  Te42      1.0  0.15626  0.63009  0.19792  1.0000
  O  Te43      1.0  0.06211  0.59905  0.27599  1.0000
  O  Te44      1.0  0.02329  0.44583  0.46552  1.0000
  Mg  Mg21      1.0  0.12025  0.65822  0.18302  1.0000
  Mg  Mg22      1.0  0.05927  0.41767  0.48055  1.0000
  C  Sn45      1.0  0.93680  0.50324  0.34889  1.0000
  C   C35       1.0  0.90792  0.45969  0.31247  1.0000
  C  Sn46      1.0  0.92151  0.42875  0.31222  1.0000
  C  Sn47      1.0  0.96486  0.44160  0.34926  1.0000
  C   C36       1.0  0.99372  0.48513  0.38568  1.0000
  C  Sn48      1.0  0.98016  0.51609  0.38593  1.0000
  O  Te45      1.0  0.92251  0.53362  0.34843  1.0000
  O  Te46      1.0  0.89205  0.38541  0.27537  1.0000
  O  Te47      1.0  0.97914  0.41118  0.34969  1.0000
  O  Te48      1.0  0.00959  0.55941  0.42278  1.0000
  Mg  Mg23      1.0  0.92691  0.35606  0.29177  1.0000
  Mg  Mg24      1.0  0.97476  0.58877  0.40651  1.0000
  C  Sn49      1.0  0.81240  0.36809  0.86489  1.0000
  C   C37       1.0  0.84731  0.41405  0.80798  1.0000
  C  Sn50      1.0  0.83689  0.44633  0.76034  1.0000
  C  Sn51      1.0  0.79060  0.43239  0.76988  1.0000
  C   C38       1.0  0.75572  0.38646  0.82679  1.0000
  C  Sn52      1.0  0.76611  0.35416  0.87443  1.0000
  O  Te49      1.0  0.82361  0.33641  0.91187  1.0000
  O  Te50      1.0  0.87238  0.49208  0.70380  1.0000
  O  Te51      1.0  0.77941  0.46412  0.72283  1.0000
  O  Te52      1.0  0.73065  0.30844  0.93097  1.0000
  Mg  Mg25      1.0  0.83979  0.52246  0.65408  1.0000
  Mg  Mg26      1.0  0.76320  0.27804  0.98080  1.0000
  C  Sn53      1.0  0.35435  0.74869  0.59674  1.0000
  C   C39       1.0  0.36591  0.71934  0.66956  1.0000
  C  Sn54      1.0  0.39933  0.73482  0.76991  1.0000
  C  Sn55      1.0  0.42164  0.78058  0.79817  1.0000
  C   C40       1.0  0.41007  0.80989  0.72540  1.0000
  C  Sn56      1.0  0.37666  0.79444  0.62500  1.0000
  O  Te53      1.0  0.32084  0.73248  0.49687  1.0000
  O  Te54      1.0  0.41032  0.70486  0.84131  1.0000
  O  Te55      1.0  0.45517  0.79677  0.89813  1.0000
  O  Te56      1.0  0.36567  0.82437  0.55364  1.0000
  Mg  Mg27      1.0  0.45822  0.74294  0.96791  1.0000
  Mg  Mg28      1.0  0.31775  0.78632  0.42710  1.0000
  C  Sn57      1.0  0.64208  0.44221  0.74446  1.0000
  C   C41       1.0  0.62393  0.39567  0.79647  1.0000
  C  Sn58      1.0  0.57678  0.36386  0.82311  1.0000
  C  Sn59      1.0  0.54715  0.37886  0.79714  1.0000
  C   C42       1.0  0.56530  0.42536  0.74514  1.0000
  C  Sn60      1.0  0.61245  0.45721  0.71849  1.0000
  O  Te57      1.0  0.68932  0.47341  0.71858  1.0000
  O  Te58      1.0  0.55944  0.31752  0.87515  1.0000
  O  Te59      1.0  0.49988  0.34760  0.82308  1.0000
  O  Te60      1.0  0.62979  0.50352  0.66646  1.0000
  Mg  Mg29      1.0  0.49265  0.28814  0.89367  1.0000
  Mg  Mg30      1.0  0.69657  0.53292  0.64781  1.0000
  C  Sn61      1.0  0.25381  0.59984  0.66546  1.0000
  C   C43       1.0  0.28295  0.63952  0.72624  1.0000
  C  Sn62      1.0  0.26536  0.65438  0.84949  1.0000
  C  Sn63      1.0  0.21764  0.62903  0.91342  1.0000
  C   C44       1.0  0.18852  0.58937  0.85267  1.0000
  C  Sn64      1.0  0.20608  0.57449  0.72939  1.0000
  O  Te61      1.0  0.27215  0.58562  0.54223  1.0000
  O  Te62      1.0  0.29517  0.69417  0.90825  1.0000
  O  Te63      1.0  0.25056  0.69193  0.03674  1.0000
  O  Te64      1.0  0.17630  0.53472  0.67066  1.0000
  Mg  Mg31      1.0  0.30505  0.74829  0.07683  1.0000
  Mg  Mg32      1.0  0.21763  0.52920  0.50216  1.0000
  C  Sn65      1.0  0.54525  0.17923  0.70862  1.0000
  C   C45       1.0  0.56362  0.15755  0.62664  1.0000
  C  Sn66      1.0  0.61093  0.17830  0.58688  1.0000
  C  Sn67      1.0  0.64049  0.22162  0.63006  1.0000
  C   C46       1.0  0.62212  0.24327  0.71202  1.0000
  C  Sn68      1.0  0.57481  0.22254  0.75180  1.0000
  O  Te65      1.0  0.49785  0.15784  0.74715  1.0000
  O  Te66      1.0  0.62850  0.15597  0.50484  1.0000
  O  Te67      1.0  0.68793  0.24300  0.59145  1.0000
  O  Te68      1.0  0.55724  0.24485  0.83381  1.0000
  Mg  Mg33      1.0  0.69544  0.19895  0.47916  1.0000
  Mg  Mg34      1.0  0.49031  0.20190  0.85963  1.0000
  C  Sn69      1.0  0.34488  0.59388  0.89009  1.0000
  C   C47       1.0  0.35976  0.63693  0.80039  1.0000
  C  Sn70      1.0  0.39620  0.65793  0.66320  1.0000
  C  Sn71      1.0  0.41822  0.63543  0.61456  1.0000
  C   C48       1.0  0.40335  0.59241  0.70421  1.0000
  C  Sn72      1.0  0.36691  0.57138  0.84145  1.0000
  O  Te69      1.0  0.35963  0.62217  0.02683  1.0000
  O  Te70      1.0  0.41047  0.70098  0.57551  1.0000
  O  Te71      1.0  0.45475  0.65582  0.47771  1.0000
  O  Te72      1.0  0.35264  0.52836  0.92910  1.0000
  Mg  Mg35      1.0  0.46169  0.71471  0.39798  1.0000
  Mg  Mg36      1.0  0.35265  0.56323  0.10658  1.0000
  C  Sn73      1.0  0.40232  0.51094  0.78409  1.0000
  C   C49       1.0  0.42064  0.55733  0.78601  1.0000
  C  Sn74      1.0  0.46795  0.58861  0.75387  1.0000
  C  Sn75      1.0  0.49757  0.57322  0.71897  1.0000
  C   C50       1.0  0.47926  0.52687  0.71704  1.0000
  C  Sn76      1.0  0.43195  0.49555  0.74920  1.0000
  O  Te73      1.0  0.35492  0.48027  0.81657  1.0000
  O  Te74      1.0  0.48545  0.63481  0.75654  1.0000
  O  Te75      1.0  0.54501  0.60394  0.68649  1.0000
  O  Te76      1.0  0.41445  0.44939  0.74651  1.0000
  Mg  Mg37      1.0  0.55242  0.66341  0.70435  1.0000
  Mg  Mg38      1.0  0.34749  0.42076  0.79859  1.0000
  C  Sn77      1.0  0.48954  0.43013  0.83501  1.0000
  C   C51       1.0  0.53294  0.44534  0.74603  1.0000
  C  Sn78      1.0  0.56211  0.49068  0.66272  1.0000
  C  Sn79      1.0  0.54760  0.52146  0.66856  1.0000
  C   C52       1.0  0.50423  0.50625  0.75753  1.0000
  C  Sn80      1.0  0.47503  0.46091  0.84085  1.0000
  O  Te77      1.0  0.46094  0.38466  0.91737  1.0000
  O  Te78      1.0  0.60534  0.50509  0.57453  1.0000
  O  Te79      1.0  0.57624  0.56696  0.58611  1.0000
  O  Te80      1.0  0.43182  0.44650  0.92902  1.0000
  Mg  Mg39      1.0  0.63194  0.57034  0.48268  1.0000
  Mg  Mg40      1.0  0.45646  0.42991  0.02098  1.0000
  C  Sn81      1.0  0.50289  0.92655  0.56467  1.0000
  C   C53       1.0  0.48527  0.95280  0.60569  1.0000
  C  Sn82      1.0  0.44146  0.93200  0.70230  1.0000
  C  Sn83      1.0  0.41470  0.88397  0.75919  1.0000
  C   C54       1.0  0.43232  0.85775  0.71820  1.0000
  C  Sn84      1.0  0.47613  0.87852  0.62157  1.0000
  O  Te81      1.0  0.54677  0.94807  0.46796  1.0000
  O  Te82      1.0  0.42458  0.95896  0.74165  1.0000
  O  Te83      1.0  0.37078  0.86246  0.85598  1.0000
  O  Te84      1.0  0.49300  0.85159  0.58225  1.0000
  Mg  Mg41      1.0  0.36287  0.91381  0.87684  1.0000
  Mg  Mg42      1.0  0.55472  0.89670  0.44714  1.0000
  C  Sn85      1.0  0.57522  0.07188  0.65177  1.0000
  C   C55       1.0  0.55858  0.09914  0.60827  1.0000
  C  Sn86      1.0  0.51276  0.07905  0.59461  1.0000
  C  Sn87      1.0  0.48293  0.03070  0.62518  1.0000
  C   C56       1.0  0.49957  0.00347  0.66869  1.0000
  C  Sn88      1.0  0.54539  0.02353  0.68234  1.0000
  O  Te85      1.0  0.62115  0.09270  0.66471  1.0000
  O  Te86      1.0  0.49692  0.10702  0.55089  1.0000
  O  Te87      1.0  0.43697  0.00989  0.61220  1.0000
  O  Te88      1.0  0.56123  0.99559  0.72607  1.0000
  Mg  Mg43      1.0  0.43155  0.06253  0.54917  1.0000
  Mg  Mg44      1.0  0.62659  0.04004  0.72791  1.0000
  C  Sn89      1.0  0.10826  0.59064  0.82691  1.0000
  C   C57       1.0  0.13429  0.57311  0.86871  1.0000
  C  Sn90      1.0  0.11567  0.52609  0.88953  1.0000
  C  Sn91      1.0  0.07010  0.49596  0.86803  1.0000
  C   C58       1.0  0.04410  0.51350  0.82622  1.0000
  C  Sn92      1.0  0.06269  0.56051  0.80540  1.0000
  O  Te89      1.0  0.12757  0.63776  0.80670  1.0000
  O  Te90      1.0  0.14236  0.50937  0.93138  1.0000
  O  Te91      1.0  0.05080  0.44881  0.88828  1.0000
  O  Te92      1.0  0.03604  0.57723  0.76355  1.0000
  Mg  Mg45      1.0  0.10079  0.44251  0.94530  1.0000
  Mg  Mg46      1.0  0.07757  0.64409  0.74952  1.0000
  C  Sn93      1.0  0.96360  0.44906  0.75955  1.0000
  C   C59       1.0  0.99212  0.49176  0.80309  1.0000
  C  Sn94      1.0  0.97349  0.51278  0.88820  1.0000
  C  Sn95      1.0  0.92535  0.49065  0.93078  1.0000
  C   C60       1.0  0.89686  0.44797  0.88726  1.0000
  C  Sn96      1.0  0.91546  0.42692  0.80212  1.0000
  O  Te93      1.0  0.98298  0.42867  0.67449  1.0000
  O  Te94      1.0  0.00270  0.55548  0.93035  1.0000
  O  Te95      1.0  0.95724  0.55971  0.01590  1.0000
  O  Te96      1.0  0.88628  0.38425  0.76001  1.0000
  Mg  Mg47      1.0  0.01121  0.61804  0.04608  1.0000
  Mg  Mg48      1.0  0.92898  0.37029  0.64436  1.0000
