data_image0
_chemical_formula_structural       C6H3C24H16C8H2C2H2C2H2C2H2C2H2C2H2NC6H3C18H12C6H2C2H2C2H2C2H2NSnCSn2CSnTe4Mg2SnCSn2CSnTe4Mg2SnCSn2CSnTe4Mg2SnCSn2CSnTe4Mg2SnCSn2CSnTe4Mg2SnCSn2CSnTe4Mg2SnCSn2CSnTe4Mg2SnCSn2CSnTe4Mg2SnCSn2CSnTe4Mg2SnCSn2CSnTe4Mg2SnCSn2CSnTe4Mg2SnCSn2CSnTe4Mg2
_chemical_formula_sum              "C108 H54 N2 Sn48 Te48 Mg24"
_cell_length_a       35.1279
_cell_length_b       35.0319
_cell_length_c       8.10377
_cell_angle_alpha    84.6914
_cell_angle_beta     83.6453
_cell_angle_gamma    122.01

_symmetry_space_group_name_H-M    'P1'
_space_group_IT_number       1

loop_
  _space_group_symop_operation_xyz
  'x, y, z'

loop_
  _atom_site_type_symbol
  _atom_site_label
  _atom_site_symmetry_multiplicity
  _atom_site_fract_x
  _atom_site_fract_y
  _atom_site_fract_z
  _atom_site_occupancy
  C   C1        1.0  0.71010  0.35813  0.27838  1.0000
  C   C2        1.0  0.64152  0.35892  0.25781  1.0000
  C   C3        1.0  0.64212  0.29069  0.21831  1.0000
  C   C4        1.0  0.68733  0.31334  0.24487  1.0000
  C   C5        1.0  0.68667  0.38045  0.28505  1.0000
  C   C6        1.0  0.61983  0.31418  0.22404  1.0000
  H   H1        1.0  0.70513  0.29569  0.24056  1.0000
  H   H2        1.0  0.70306  0.41428  0.31907  1.0000
  H   H3        1.0  0.58559  0.29795  0.19576  1.0000
  C   C7        1.0  0.61751  0.38313  0.26271  1.0000
  C   C8        1.0  0.61831  0.24305  0.18749  1.0000
  C   C9        1.0  0.28743  0.63848  0.27256  1.0000
  C   C10       1.0  0.36128  0.71218  0.22498  1.0000
  C   C11       1.0  0.34636  0.73710  0.13940  1.0000
  C   C12       1.0  0.64045  0.42990  0.19409  1.0000
  C   C13       1.0  0.26277  0.59635  0.21815  1.0000
  C   C14       1.0  0.57124  0.21220  0.25083  1.0000
  C   C15       1.0  0.64161  0.22645  0.09870  1.0000
  C   C16       1.0  0.26294  0.65551  0.34926  1.0000
  C   C17       1.0  0.57090  0.36047  0.33434  1.0000
  C   C18       1.0  0.40189  0.73651  0.28719  1.0000
  C   C19       1.0  0.37042  0.78448  0.12204  1.0000
  C   C20       1.0  0.61784  0.45264  0.19489  1.0000
  C   C21       1.0  0.21539  0.57238  0.23862  1.0000
  C   C22       1.0  0.54875  0.16674  0.22885  1.0000
  C   C23       1.0  0.61922  0.18092  0.07772  1.0000
  C   C24       1.0  0.21573  0.63208  0.36425  1.0000
  C   C25       1.0  0.54827  0.38324  0.33422  1.0000
  C   C26       1.0  0.42678  0.78406  0.26432  1.0000
  C   C27       1.0  0.57088  0.42988  0.26261  1.0000
  C   C28       1.0  0.57240  0.14989  0.14476  1.0000
  C   C29       1.0  0.19091  0.59002  0.30955  1.0000
  C   C30       1.0  0.41121  0.80901  0.18356  1.0000
  H   H4        1.0  0.31576  0.71903  0.08600  1.0000
  H   H5        1.0  0.67640  0.44845  0.13565  1.0000
  H   H6        1.0  0.28104  0.58266  0.15834  1.0000
  H   H7        1.0  0.55273  0.22365  0.32541  1.0000
  H   H8        1.0  0.67769  0.24976  0.04350  1.0000
  H   H9        1.0  0.28126  0.68713  0.39810  1.0000
  H   H10       1.0  0.55231  0.32453  0.39252  1.0000
  H   H11       1.0  0.41339  0.71763  0.35590  1.0000
  H   H12       1.0  0.35849  0.80310  0.05345  1.0000
  H   H13       1.0  0.63719  0.48889  0.14128  1.0000
  H   H14       1.0  0.19701  0.54035  0.19186  1.0000
  H   H15       1.0  0.51270  0.14317  0.28422  1.0000
  H   H16       1.0  0.63774  0.16904  0.00577  1.0000
  H   H17       1.0  0.19746  0.64556  0.42659  1.0000
  H   H18       1.0  0.51208  0.36408  0.38931  1.0000
  H   H19       1.0  0.45736  0.80214  0.31866  1.0000
  C   C31       1.0  0.54681  0.45404  0.25714  1.0000
  C   C32       1.0  0.50137  0.50165  0.24649  1.0000
  C   C33       1.0  0.43589  0.85914  0.16793  1.0000
  C   C34       1.0  0.48189  0.95549  0.14340  1.0000
  C   C35       1.0  0.14090  0.56520  0.32496  1.0000
  C   C36       1.0  0.04463  0.51714  0.34977  1.0000
  C   C37       1.0  0.50352  0.43583  0.35767  1.0000
  C   C38       1.0  0.48126  0.45890  0.35139  1.0000
  H   H20       1.0  0.48723  0.40354  0.44483  1.0000
  H   H21       1.0  0.44850  0.44467  0.43432  1.0000
  C   C39       1.0  0.41221  0.87935  0.22023  1.0000
  C   C40       1.0  0.43482  0.92650  0.20954  1.0000
  H   H22       1.0  0.37600  0.85733  0.27545  1.0000
  H   H23       1.0  0.41629  0.94131  0.25745  1.0000
  C   C41       1.0  0.11260  0.51853  0.39710  1.0000
  C   C42       1.0  0.06537  0.49500  0.40974  1.0000
  H   H24       1.0  0.12805  0.50113  0.44727  1.0000
  H   H25       1.0  0.04402  0.45918  0.47008  1.0000
  C   C43       1.0  0.56626  0.49640  0.14931  1.0000
  C   C44       1.0  0.54444  0.51993  0.14529  1.0000
  H   H26       1.0  0.59833  0.51058  0.06211  1.0000
  H   H27       1.0  0.56018  0.55218  0.05818  1.0000
  C   C45       1.0  0.12020  0.58747  0.26632  1.0000
  C   C46       1.0  0.07304  0.56384  0.27751  1.0000
  H   H28       1.0  0.14176  0.62328  0.20578  1.0000
  H   H29       1.0  0.05787  0.58120  0.22445  1.0000
  C   C47       1.0  0.48301  0.88794  0.10260  1.0000
  C   C48       1.0  0.50549  0.93525  0.08969  1.0000
  H   H30       1.0  0.50173  0.87302  0.05747  1.0000
  H   H31       1.0  0.54175  0.95709  0.03474  1.0000
  N   N1        1.0  0.33581  0.66356  0.24964  1.0000
  C   C49       1.0  0.70946  0.35784  0.78423  1.0000
  C   C50       1.0  0.64179  0.36029  0.76300  1.0000
  C   C51       1.0  0.64043  0.29101  0.72747  1.0000
  C   C52       1.0  0.68568  0.31283  0.75349  1.0000
  C   C53       1.0  0.68697  0.38113  0.78869  1.0000
  C   C54       1.0  0.61901  0.31523  0.73243  1.0000
  H   H32       1.0  0.70251  0.29423  0.74919  1.0000
  H   H33       1.0  0.70432  0.41529  0.81981  1.0000
  H   H34       1.0  0.58471  0.29945  0.70494  1.0000
  C   C55       1.0  0.75739  0.38072  0.80833  1.0000
  C   C56       1.0  0.61829  0.38490  0.76654  1.0000
  C   C57       1.0  0.35782  0.64019  0.75077  1.0000
  C   C58       1.0  0.77401  0.35700  0.89088  1.0000
  C   C59       1.0  0.64150  0.43198  0.70252  1.0000
  C   C60       1.0  0.40150  0.66004  0.65182  1.0000
  C   C61       1.0  0.57122  0.36159  0.83145  1.0000
  C   C62       1.0  0.78856  0.42759  0.74355  1.0000
  C   C63       1.0  0.33698  0.59578  0.84374  1.0000
  C   C64       1.0  0.81981  0.37899  0.90581  1.0000
  C   C65       1.0  0.61864  0.45452  0.70221  1.0000
  C   C66       1.0  0.42372  0.63694  0.64915  1.0000
  C   C67       1.0  0.54835  0.38401  0.82958  1.0000
  C   C68       1.0  0.83421  0.44964  0.75942  1.0000
  C   C69       1.0  0.35907  0.57254  0.83773  1.0000
  C   C70       1.0  0.85097  0.42572  0.83891  1.0000
  C   C71       1.0  0.57129  0.43106  0.76459  1.0000
  C   C72       1.0  0.40319  0.59267  0.74220  1.0000
  H   H35       1.0  0.75049  0.32110  0.94774  1.0000
  H   H36       1.0  0.67785  0.45096  0.64946  1.0000
  H   H37       1.0  0.41819  0.69399  0.57666  1.0000
  H   H38       1.0  0.55245  0.32533  0.88497  1.0000
  H   H39       1.0  0.77697  0.44637  0.67403  1.0000
  H   H40       1.0  0.30312  0.57938  0.92052  1.0000
  H   H41       1.0  0.83170  0.36021  0.97358  1.0000
  H   H42       1.0  0.63805  0.49104  0.65218  1.0000
  H   H43       1.0  0.45709  0.65290  0.56840  1.0000
  H   H44       1.0  0.51173  0.36440  0.87749  1.0000
  H   H45       1.0  0.85785  0.48559  0.70369  1.0000
  H   H46       1.0  0.34254  0.53868  0.91428  1.0000
  C   C73       1.0  0.43541  0.85991  0.67550  1.0000
  C   C74       1.0  0.48343  0.95632  0.65677  1.0000
  C   C75       1.0  0.54872  0.10126  0.64964  1.0000
  C   C76       1.0  0.50724  0.00623  0.64838  1.0000
  C   C77       1.0  0.41205  0.88116  0.71785  1.0000
  C   C78       1.0  0.43564  0.92832  0.70970  1.0000
  H   H47       1.0  0.37520  0.86020  0.76261  1.0000
  H   H48       1.0  0.41726  0.94400  0.74952  1.0000
  C   C79       1.0  0.57032  0.07878  0.69560  1.0000
  C   C80       1.0  0.55001  0.03216  0.69562  1.0000
  H   H49       1.0  0.60259  0.09813  0.73857  1.0000
  H   H50       1.0  0.56662  0.01529  0.73878  1.0000
  C   C81       1.0  0.48323  0.88777  0.62479  1.0000
  C   C82       1.0  0.50674  0.93503  0.61442  1.0000
  H   H51       1.0  0.50177  0.87187  0.59016  1.0000
  H   H52       1.0  0.54354  0.95595  0.56909  1.0000
  C   C83       1.0  0.50629  0.07554  0.60020  1.0000
  C   C84       1.0  0.48634  0.02910  0.59749  1.0000
  H   H53       1.0  0.48948  0.09244  0.55991  1.0000
  H   H54       1.0  0.45447  0.01008  0.55150  1.0000
  N   N2        1.0  0.33547  0.66417  0.75696  1.0000
  C  Sn1       1.0  0.95744  0.50718  0.94407  1.0000
  C   C85       1.0  0.98658  0.49214  0.90573  1.0000
  C  Sn2       1.0  0.97354  0.45592  0.81776  1.0000
  C  Sn3       1.0  0.93049  0.43430  0.76697  1.0000
  C   C86       1.0  0.90138  0.44933  0.80529  1.0000
  C  Sn4       1.0  0.91439  0.48555  0.89328  1.0000
  O  Te1       1.0  0.02244  0.59209  0.03212  1.0000
  O  Te2       1.0  0.00325  0.44149  0.78093  1.0000
  O  Te3       1.0  0.91676  0.39800  0.67886  1.0000
  O  Te4       1.0  0.88471  0.49999  0.93009  1.0000
  Mg  Mg1       1.0  0.96914  0.39070  0.65827  1.0000
  Mg  Mg2       1.0  0.97004  0.59943  0.05265  1.0000
  C  Sn5       1.0  0.35448  0.77345  0.67910  1.0000
  C   C87       1.0  0.39660  0.80335  0.72279  1.0000
  C  Sn6       1.0  0.42526  0.78851  0.75715  1.0000
  C  Sn7       1.0  0.41154  0.74284  0.74754  1.0000
  C   C88       1.0  0.36945  0.71298  0.70385  1.0000
  C  Sn8       1.0  0.34077  0.72779  0.66949  1.0000
  O  Te5       1.0  0.32638  0.78903  0.64527  1.0000
  O  Te6       1.0  0.46720  0.81901  0.80061  1.0000
  O  Te7       1.0  0.43969  0.72728  0.78142  1.0000
  O  Te8       1.0  0.29886  0.69731  0.62602  1.0000
  Mg  Mg3       1.0  0.49357  0.78169  0.83523  1.0000
  Mg  Mg4       1.0  0.27247  0.73460  0.59130  1.0000
  C  Sn9       1.0  0.10826  0.59064  0.82691  1.0000
  C   C89       1.0  0.13429  0.57311  0.86871  1.0000
  C  Sn10      1.0  0.11567  0.52609  0.88953  1.0000
  C  Sn11      1.0  0.07010  0.49596  0.86803  1.0000
  C   C90       1.0  0.04410  0.51350  0.82622  1.0000
  C  Sn12      1.0  0.06269  0.56051  0.80540  1.0000
  O  Te9       1.0  0.12757  0.63776  0.80670  1.0000
  O  Te10      1.0  0.14236  0.50937  0.93138  1.0000
  O  Te11      1.0  0.05080  0.44881  0.88828  1.0000
  O  Te12      1.0  0.03604  0.57723  0.76355  1.0000
  Mg  Mg5       1.0  0.10079  0.44251  0.94530  1.0000
  Mg  Mg6       1.0  0.07757  0.64409  0.74952  1.0000
  C  Sn13      1.0  0.56469  0.19910  0.80626  1.0000
  C   C91       1.0  0.61024  0.23434  0.74338  1.0000
  C  Sn14      1.0  0.63660  0.22921  0.61620  1.0000
  C  Sn15      1.0  0.61701  0.18801  0.55041  1.0000
  C   C92       1.0  0.57149  0.15280  0.61326  1.0000
  C  Sn16      1.0  0.54510  0.15790  0.74047  1.0000
  O  Te13      1.0  0.53897  0.20498  0.93341  1.0000
  O  Te14      1.0  0.68207  0.26492  0.55539  1.0000
  O  Te15      1.0  0.64277  0.18216  0.42316  1.0000
  O  Te16      1.0  0.49966  0.12223  0.80125  1.0000
  Mg  Mg7       1.0  0.70319  0.24062  0.38153  1.0000
  Mg  Mg8       1.0  0.47850  0.14650  0.97504  1.0000
  C  Sn17      1.0  0.49225  0.06210  0.14989  1.0000
  C   C93       1.0  0.53620  0.09263  0.17822  1.0000
  C  Sn18      1.0  0.56839  0.08065  0.17052  1.0000
  C  Sn19      1.0  0.55642  0.03725  0.13363  1.0000
  C   C94       1.0  0.51250  0.00675  0.10529  1.0000
  C  Sn20      1.0  0.48029  0.01870  0.11300  1.0000
  O  Te17      1.0  0.46062  0.07480  0.15821  1.0000
  O  Te18      1.0  0.61210  0.11174  0.19936  1.0000
  O  Te19      1.0  0.58810  0.02457  0.12533  1.0000
  O  Te20      1.0  0.96522  0.98764  0.08415  1.0000
  Mg  Mg9       1.0  0.64326  0.07868  0.17401  1.0000
  Mg  Mg10      1.0  0.40542  0.02067  0.10938  1.0000
  C  Sn21      1.0  0.42248  0.50400  0.68335  1.0000
  C   C95       1.0  0.46761  0.52106  0.70103  1.0000
  C  Sn22      1.0  0.49325  0.56271  0.75571  1.0000
  C  Sn23      1.0  0.47335  0.58783  0.79360  1.0000
  C   C96       1.0  0.42824  0.57077  0.77594  1.0000
  C  Sn24      1.0  0.40258  0.52912  0.72124  1.0000
  O  Te21      1.0  0.39749  0.46228  0.62850  1.0000
  O  Te22      1.0  0.53831  0.57907  0.77237  1.0000
  O  Te23      1.0  0.49838  0.62957  0.84848  1.0000
  O  Te24      1.0  0.35754  0.51275  0.70461  1.0000
  Mg  Mg11      1.0  0.55846  0.63759  0.85147  1.0000
  Mg  Mg12      1.0  0.33735  0.45423  0.62561  1.0000
  C  Sn25      1.0  0.56807  0.51002  0.68014  1.0000
  C   C97       1.0  0.55423  0.46798  0.77587  1.0000
  C  Sn26      1.0  0.50864  0.43754  0.85543  1.0000
  C  Sn27      1.0  0.47619  0.44936  0.83888  1.0000
  C   C98       1.0  0.49004  0.49137  0.74317  1.0000
  C  Sn28      1.0  0.53563  0.52183  0.66359  1.0000
  O  Te25      1.0  0.61382  0.53991  0.60170  1.0000
  O  Te26      1.0  0.49562  0.39572  0.95051  1.0000
  O  Te27      1.0  0.43041  0.41942  0.91742  1.0000
  O  Te28      1.0  0.54865  0.56363  0.56853  1.0000
  Mg  Mg13      1.0  0.48057  0.41512  0.03331  1.0000
  Mg  Mg14      1.0  0.61492  0.59288  0.48561  1.0000
  C  Sn29      1.0  0.22688  0.64761  0.83503  1.0000
  C   C99       1.0  0.19766  0.60752  0.77656  1.0000
  C  Sn30      1.0  0.21259  0.57962  0.72845  1.0000
  C  Sn31      1.0  0.25767  0.59203  0.73910  1.0000
  C   C100      1.0  0.28687  0.63209  0.79757  1.0000
  C  Sn32      1.0  0.27197  0.66002  0.84568  1.0000
  O  Te29      1.0  0.21123  0.67499  0.88245  1.0000
  O  Te30      1.0  0.18275  0.53972  0.67033  1.0000
  O  Te31      1.0  0.27331  0.56462  0.69161  1.0000
  O  Te32      1.0  0.30177  0.69989  0.90380  1.0000
  Mg  Mg15      1.0  0.21991  0.51362  0.62059  1.0000
  Mg  Mg16      1.0  0.26464  0.72600  0.95365  1.0000
  C  Sn33      1.0  0.34922  0.59693  0.39203  1.0000
  C   C101      1.0  0.36213  0.63843  0.29455  1.0000
  C  Sn34      1.0  0.39620  0.65750  0.14981  1.0000
  C  Sn35      1.0  0.41781  0.63460  0.10142  1.0000
  C   C102      1.0  0.40489  0.59311  0.19885  1.0000
  C  Sn36      1.0  0.37082  0.57402  0.34364  1.0000
  O  Te33      1.0  0.31507  0.57849  0.53623  1.0000
  O  Te34      1.0  0.40854  0.69904  0.05441  1.0000
  O  Te35      1.0  0.40073  0.60443  0.95709  1.0000
  O  Te36      1.0  0.35848  0.53250  0.43899  1.0000
  Mg  Mg17      1.0  0.40563  0.66176  0.86844  1.0000
  Mg  Mg18      1.0  0.31013  0.52111  0.62493  1.0000
  C  Sn37      1.0  0.77942  0.36135  0.44339  1.0000
  C   C103      1.0  0.75917  0.38070  0.36015  1.0000
  C  Sn38      1.0  0.78621  0.42231  0.24782  1.0000
  C  Sn39      1.0  0.83450  0.44506  0.21797  1.0000
  C   C104      1.0  0.85473  0.42571  0.30115  1.0000
  C  Sn40      1.0  0.82771  0.38410  0.41354  1.0000
  O  Te37      1.0  0.75172  0.31972  0.55515  1.0000
  O  Te38      1.0  0.76518  0.44099  0.16614  1.0000
  O  Te39      1.0  0.86219  0.48672  0.10610  1.0000
  O  Te40      1.0  0.84871  0.36542  0.49517  1.0000
  Mg  Mg19      1.0  0.81752  0.49840  0.02523  1.0000
  Mg  Mg20      1.0  0.79641  0.30800  0.63602  1.0000
  C  Sn41      1.0  0.42552  0.50596  0.18847  1.0000
  C   C105      1.0  0.47142  0.52447  0.19760  1.0000
  C  Sn42      1.0  0.49753  0.56734  0.24329  1.0000
  C  Sn43      1.0  0.47734  0.59221  0.28074  1.0000
  C   C106      1.0  0.43146  0.57370  0.27163  1.0000
  C  Sn44      1.0  0.40532  0.53083  0.22592  1.0000
  O  Te41      1.0  0.40006  0.46304  0.14253  1.0000
  O  Te42      1.0  0.54337  0.58514  0.25149  1.0000
  O  Te43      1.0  0.50284  0.63516  0.32670  1.0000
  O  Te44      1.0  0.35951  0.51302  0.21774  1.0000
  Mg  Mg21      1.0  0.56393  0.64493  0.32020  1.0000
  Mg  Mg22      1.0  0.33892  0.45323  0.14913  1.0000
  C  Sn45      1.0  0.95753  0.50467  0.44906  1.0000
  C   C107      1.0  0.98674  0.48977  0.40969  1.0000
  C  Sn46      1.0  0.97352  0.45336  0.32262  1.0000
  C  Sn47      1.0  0.93022  0.43141  0.27377  1.0000
  C   C108      1.0  0.90104  0.44631  0.31310  1.0000
  C  Sn48      1.0  0.91422  0.48271  0.40021  1.0000
  O  Te45      1.0  0.97145  0.54113  0.53619  1.0000
  O  Te46      1.0  0.00330  0.43907  0.28473  1.0000
  O  Te47      1.0  0.91631  0.39492  0.18658  1.0000
  O  Te48      1.0  0.88447  0.49701  0.43807  1.0000
  Mg  Mg23      1.0  0.96889  0.38793  0.16396  1.0000
  Mg  Mg24      1.0  0.91886  0.54816  0.55875  1.0000
