data_image0
_chemical_formula_structural       ONC3H2ONC9H6ONC9H6ONC9H6ONC3H2ONC9H6ONC3H2ONC3H2ONC9H6ONC3H2ONC3H2ONC9H6C2Sn2C2HTe2HMgC2Sn2C2HTe2HMgC2Sn2C2HTe2HMgC2Sn2C2HTe2HMgC2Sn2C2HTe2HMgC2Sn2C2HTe2HMg
_chemical_formula_sum              "O12 N12 C96 H60 Sn12 Te12 Mg6"
_cell_length_a       30.0488
_cell_length_b       30.01
_cell_length_c       8.15151
_cell_angle_alpha    122.504
_cell_angle_beta     85.6434
_cell_angle_gamma    119.831

_symmetry_space_group_name_H-M    'P1'
_space_group_IT_number       1

loop_
  _space_group_symop_operation_xyz
  'x, y, z'

loop_
  _atom_site_type_symbol
  _atom_site_label
  _atom_site_symmetry_multiplicity
  _atom_site_fract_x
  _atom_site_fract_y
  _atom_site_fract_z
  _atom_site_occupancy
  O   O1        1.0  0.29615  0.56264  0.99881  1.0000
  N   N1        1.0  0.39135  0.58582  0.02219  1.0000
  C   C1        1.0  0.31262  0.61052  0.99750  1.0000
  C   C2        1.0  0.40450  0.63468  0.01725  1.0000
  C   C3        1.0  0.36777  0.64873  0.00509  1.0000
  H   H1        1.0  0.44530  0.66492  0.02339  1.0000
  H   H2        1.0  0.35090  0.56176  0.01832  1.0000
  O   O2        1.0  0.43567  0.73569  0.00708  1.0000
  N   N2        1.0  0.41452  0.80490  0.97707  1.0000
  C   C4        1.0  0.38716  0.70319  0.00062  1.0000
  C   C5        1.0  0.36511  0.76961  0.97988  1.0000
  C   C6        1.0  0.43552  0.85762  0.97422  1.0000
  C   C7        1.0  0.40623  0.88274  0.97869  1.0000
  C   C8        1.0  0.43075  0.93747  0.98686  1.0000
  C   C9        1.0  0.48469  0.96920  0.98855  1.0000
  C   C10       1.0  0.51267  0.94177  0.97688  1.0000
  C   C11       1.0  0.48887  0.88734  0.96990  1.0000
  C   C12       1.0  0.34954  0.71920  0.98996  1.0000
  H   H3        1.0  0.33546  0.77967  0.97208  1.0000
  H   H4        1.0  0.36464  0.86039  0.97942  1.0000
  H   H5        1.0  0.43843  0.78963  0.98654  1.0000
  H   H6        1.0  0.51125  0.86705  0.96156  1.0000
  H   H7        1.0  0.40717  0.95638  0.99504  1.0000
  H   H8        1.0  0.55384  0.96287  0.97045  1.0000
  O   O3        1.0  0.26286  0.70036  0.98850  1.0000
  N   N3        1.0  0.18819  0.60670  0.98809  1.0000
  C   C13       1.0  0.29435  0.68369  0.98963  1.0000
  C   C14       1.0  0.22452  0.59352  0.99151  1.0000
  C   C15       1.0  0.13501  0.57458  0.98819  1.0000
  C   C16       1.0  0.10971  0.51708  0.96607  1.0000
  C   C17       1.0  0.05657  0.48747  0.96652  1.0000
  C   C18       1.0  0.02612  0.51321  0.98921  1.0000
  C   C19       1.0  0.05235  0.57084  0.01028  1.0000
  C   C20       1.0  0.10539  0.60086  0.00910  1.0000
  C   C21       1.0  0.27657  0.62916  0.99084  1.0000
  H   H9        1.0  0.21353  0.55393  0.99693  1.0000
  H   H10       1.0  0.13116  0.49488  0.94625  1.0000
  H   H11       1.0  0.20523  0.64723  0.98945  1.0000
  H   H12       1.0  0.12455  0.64526  0.02523  1.0000
  H   H13       1.0  0.03838  0.44270  0.94673  1.0000
  H   H14       1.0  0.03126  0.59337  0.02953  1.0000
  O   O4        1.0  0.70316  0.43648  0.99969  1.0000
  N   N4        1.0  0.60915  0.41779  0.98928  1.0000
  C   C22       1.0  0.68581  0.38872  0.00233  1.0000
  C   C23       1.0  0.59538  0.36887  0.99524  1.0000
  C   C24       1.0  0.57725  0.43956  0.99114  1.0000
  C   C25       1.0  0.52439  0.41199  0.00305  1.0000
  C   C26       1.0  0.49533  0.43729  0.01229  1.0000
  C   C27       1.0  0.51685  0.49061  0.00937  1.0000
  C   C28       1.0  0.56991  0.51723  0.99604  1.0000
  C   C29       1.0  0.59953  0.49254  0.98715  1.0000
  C   C30       1.0  0.63089  0.35266  0.00162  1.0000
  H   H15       1.0  0.55478  0.34022  0.99523  1.0000
  H   H16       1.0  0.50606  0.37171  0.01046  1.0000
  H   H17       1.0  0.64923  0.44048  0.98792  1.0000
  H   H18       1.0  0.64024  0.51414  0.97579  1.0000
  H   H19       1.0  0.45495  0.41499  0.02523  1.0000
  H   H20       1.0  0.58880  0.55775  0.98975  1.0000
  O   O5        1.0  0.56206  0.26701  0.00417  1.0000
  N   N5        1.0  0.58109  0.19521  0.02965  1.0000
  C   C31       1.0  0.61050  0.29814  0.00735  1.0000
  C   C32       1.0  0.63063  0.23005  0.02618  1.0000
  C   C33       1.0  0.64707  0.28051  0.01538  1.0000
  H   H21       1.0  0.65953  0.21867  0.03073  1.0000
  H   H22       1.0  0.55733  0.21042  0.01941  1.0000
  O   O6        1.0  0.73194  0.29427  0.99841  1.0000
  N   N6        1.0  0.80768  0.38642  0.98995  1.0000
  C   C34       1.0  0.70171  0.31320  0.00536  1.0000
  C   C35       1.0  0.77206  0.40125  0.99426  1.0000
  C   C36       1.0  0.86050  0.41786  0.98481  1.0000
  C   C37       1.0  0.88354  0.47060  0.97918  1.0000
  C   C38       1.0  0.93677  0.50086  0.97998  1.0000
  C   C39       1.0  0.96971  0.48095  0.98933  1.0000
  C   C40       1.0  0.94566  0.42788  0.99463  1.0000
  C   C41       1.0  0.89231  0.39655  0.99069  1.0000
  C   C42       1.0  0.72043  0.36765  0.00242  1.0000
  H   H23       1.0  0.78351  0.44136  0.99142  1.0000
  H   H24       1.0  0.85988  0.48759  0.96998  1.0000
  H   H25       1.0  0.79090  0.34636  0.99030  1.0000
  H   H26       1.0  0.87529  0.35641  0.99870  1.0000
  H   H27       1.0  0.95245  0.54006  0.96794  1.0000
  H   H28       1.0  0.96916  0.41114  0.00708  1.0000
  O   O7        1.0  0.29688  0.56244  0.49828  1.0000
  N   N7        1.0  0.39218  0.58495  0.52520  1.0000
  C   C43       1.0  0.31398  0.61036  0.49667  1.0000
  C   C44       1.0  0.40557  0.63346  0.51757  1.0000
  C   C45       1.0  0.36927  0.64789  0.50392  1.0000
  H   H29       1.0  0.44637  0.66315  0.52217  1.0000
  H   H30       1.0  0.35172  0.56092  0.52041  1.0000
  O   O8        1.0  0.43784  0.73355  0.50127  1.0000
  N   N8        1.0  0.41869  0.80498  0.47623  1.0000
  C   C46       1.0  0.38934  0.70214  0.49730  1.0000
  C   C47       1.0  0.36915  0.77036  0.48026  1.0000
  C   C48       1.0  0.35256  0.71934  0.48810  1.0000
  H   H31       1.0  0.34024  0.78179  0.47657  1.0000
  H   H32       1.0  0.44201  0.78877  0.48253  1.0000
  O   O9        1.0  0.26649  0.70253  0.49117  1.0000
  N   N9        1.0  0.19070  0.60906  0.48988  1.0000
  C   C49       1.0  0.29732  0.68481  0.48974  1.0000
  C   C50       1.0  0.22646  0.59488  0.49085  1.0000
  C   C51       1.0  0.13748  0.57718  0.49023  1.0000
  C   C52       1.0  0.11085  0.51725  0.45144  1.0000
  C   C53       1.0  0.05763  0.48766  0.45126  1.0000
  C   C54       1.0  0.02854  0.51591  0.49004  1.0000
  C   C55       1.0  0.05609  0.57601  0.52822  1.0000
  C   C56       1.0  0.10920  0.60603  0.52768  1.0000
  C   C57       1.0  0.27866  0.62987  0.48992  1.0000
  H   H33       1.0  0.21482  0.55497  0.49525  1.0000
  H   H34       1.0  0.13126  0.49306  0.41761  1.0000
  H   H35       1.0  0.20822  0.65007  0.49397  1.0000
  H   H36       1.0  0.12945  0.65247  0.55785  1.0000
  H   H37       1.0  0.03810  0.44078  0.41685  1.0000
  H   H38       1.0  0.03600  0.60051  0.56152  1.0000
  O   O10       1.0  0.70334  0.43630  0.49823  1.0000
  N   N10       1.0  0.60905  0.41570  0.48830  1.0000
  C   C58       1.0  0.68689  0.38868  0.50087  1.0000
  C   C59       1.0  0.59583  0.36689  0.49383  1.0000
  C   C60       1.0  0.63218  0.35173  0.50025  1.0000
  H   H39       1.0  0.55536  0.33774  0.49359  1.0000
  H   H40       1.0  0.64921  0.43875  0.48734  1.0000
  O   O11       1.0  0.56460  0.26536  0.50168  1.0000
  N   N11       1.0  0.58587  0.19602  0.53161  1.0000
  C   C61       1.0  0.61293  0.29741  0.50566  1.0000
  C   C62       1.0  0.63509  0.23107  0.52668  1.0000
  C   C63       1.0  0.65045  0.28100  0.51401  1.0000
  H   H41       1.0  0.66458  0.22057  0.53232  1.0000
  H   H42       1.0  0.56165  0.21066  0.52014  1.0000
  O   O12       1.0  0.73618  0.29722  0.50038  1.0000
  N   N12       1.0  0.80996  0.38891  0.48709  1.0000
  C   C64       1.0  0.70499  0.31481  0.50503  1.0000
  C   C65       1.0  0.77384  0.40308  0.49156  1.0000
  C   C66       1.0  0.86283  0.42068  0.48318  1.0000
  C   C67       1.0  0.88616  0.47400  0.48055  1.0000
  C   C68       1.0  0.93949  0.50426  0.48218  1.0000
  C   C69       1.0  0.97209  0.48377  0.48956  1.0000
  C   C70       1.0  0.94784  0.43026  0.49251  1.0000
  C   C71       1.0  0.89442  0.39896  0.48768  1.0000
  C   C72       1.0  0.72250  0.36881  0.50085  1.0000
  H   H43       1.0  0.78443  0.44278  0.48755  1.0000
  H   H44       1.0  0.86269  0.49137  0.47288  1.0000
  H   H45       1.0  0.79357  0.34912  0.48917  1.0000
  H   H46       1.0  0.87706  0.35848  0.49407  1.0000
  H   H47       1.0  0.95543  0.54371  0.47124  1.0000
  H   H48       1.0  0.97130  0.41341  0.50448  1.0000
  C   C73       1.0  0.49525  0.42141  0.50195  1.0000
  C   C74       1.0  0.51138  0.47623  0.51718  1.0000
  C  Sn1       1.0  0.56265  0.51183  0.50792  1.0000
  C  Sn2       1.0  0.59833  0.49206  0.48289  1.0000
  C   C75       1.0  0.58180  0.43713  0.46766  1.0000
  C   C76       1.0  0.53042  0.40186  0.47718  1.0000
  H   H49       1.0  0.45548  0.39410  0.50920  1.0000
  O  Te1       1.0  0.57812  0.56649  0.52346  1.0000
  O  Te2       1.0  0.64979  0.52675  0.47308  1.0000
  H   H50       1.0  0.51793  0.35940  0.46525  1.0000
  Mg  Mg1       1.0  0.65235  0.59786  0.50161  1.0000
  C   C77       1.0  0.97597  0.06145  0.98030  1.0000
  C   C78       1.0  0.99849  0.03110  0.98599  1.0000
  C  Sn3       1.0  0.98462  0.87939  0.02772  1.0000
  C  Sn4       1.0  0.01769  0.93950  0.06441  1.0000
  C   C79       1.0  0.99478  0.96950  0.05851  1.0000
  C   C80       1.0  0.93959  0.94044  0.01655  1.0000
  H   H51       1.0  0.93327  0.03899  0.94795  1.0000
  O  Te3       1.0  0.00645  0.84839  0.03275  1.0000
  O  Te4       1.0  0.07289  0.96917  0.10655  1.0000
  H   H52       1.0  0.92217  0.96397  0.01228  1.0000
  Mg  Mg2       1.0  0.08384  0.90802  0.09665  1.0000
  C   C81       1.0  0.98158  0.06325  0.48870  1.0000
  C   C82       1.0  0.00412  0.03268  0.49246  1.0000
  C  Sn5       1.0  0.05914  0.06067  0.52939  1.0000
  C  Sn6       1.0  0.59531  0.12038  0.56317  1.0000
  C   C83       1.0  0.57237  0.15060  0.55924  1.0000
  C   C84       1.0  0.51727  0.12216  0.52209  1.0000
  H   H53       1.0  0.93895  0.04127  0.46007  1.0000
  O  Te5       1.0  0.08100  0.02946  0.53254  1.0000
  O  Te6       1.0  0.65042  0.14943  0.60050  1.0000
  H   H54       1.0  0.49983  0.14586  0.51932  1.0000
  Mg  Mg3       1.0  0.15825  0.08820  0.58969  1.0000
  C   C85       1.0  0.51992  0.93274  0.49173  1.0000
  C   C86       1.0  0.49758  0.96224  0.47829  1.0000
  C  Sn7       1.0  0.44381  0.93962  0.47014  1.0000
  C  Sn8       1.0  0.41192  0.88648  0.47563  1.0000
  C   C87       1.0  0.43466  0.85733  0.48924  1.0000
  C   C88       1.0  0.48850  0.88034  0.49724  1.0000
  H   H55       1.0  0.56158  0.95056  0.49804  1.0000
  O  Te7       1.0  0.42213  0.96963  0.45665  1.0000
  O  Te8       1.0  0.35808  0.86290  0.46778  1.0000
  H   H56       1.0  0.50579  0.85752  0.50778  1.0000
  Mg  Mg4       1.0  0.34679  0.91995  0.44993  1.0000
  C   C89       1.0  0.50624  0.57999  0.51432  1.0000
  C   C90       1.0  0.49266  0.53056  0.52838  1.0000
  C  Sn9       1.0  0.44128  0.49443  0.53557  1.0000
  C  Sn10      1.0  0.40286  0.50814  0.52847  1.0000
  C   C91       1.0  0.41683  0.55766  0.51427  1.0000
  C   C92       1.0  0.46837  0.59352  0.50723  1.0000
  H   H57       1.0  0.54611  0.60772  0.50877  1.0000
  O  Te9       1.0  0.42838  0.44524  0.54969  1.0000
  O  Te10      1.0  0.35121  0.47277  0.53533  1.0000
  H   H58       1.0  0.47887  0.63176  0.49622  1.0000
  Mg  Mg5       1.0  0.35278  0.41052  0.55459  1.0000
  C   C93       1.0  0.50503  0.57987  0.00394  1.0000
  C   C94       1.0  0.49238  0.53232  0.02694  1.0000
  C  Sn11      1.0  0.44177  0.49787  0.04326  1.0000
  C  Sn12      1.0  0.40319  0.51137  0.03631  1.0000
  C   C95       1.0  0.41623  0.55900  0.01311  1.0000
  C   C96       1.0  0.53597  0.77352  0.99699  1.0000
  H   H59       1.0  0.61327  0.78662  0.99136  1.0000
  O  Te11      1.0  0.42980  0.45054  0.06624  1.0000
  O  Te12      1.0  0.35230  0.47765  0.05218  1.0000
  H   H60       1.0  0.54574  0.81030  0.97905  1.0000
  Mg  Mg6       1.0  0.35501  0.41763  0.08154  1.0000
