data_image0
_chemical_formula_structural       ONC3H2ONC3H2ONC3H2ONC3H2ONC3H2ONC3H2ONC3H2ONC3H2ONC3H2ONC3H2ONC3H2ONC3H2SnCSn2CSnTe4Mg2SnCSn2CSnTe4Mg2SnCSn2CSnTe4Mg2SnCSn2CSnTe4Mg2SnCSn2CSnTe4Mg2SnCSn2CSnTe4Mg2SnCSn2CSnTe4Mg2SnCSn2CSnTe4Mg2SnCSn2CSnTe4Mg2SnCSn2CSnTe4Mg2SnCSn2CSnTe4Mg2SnCSn2CSnTe4Mg2
_chemical_formula_sum              "O12 N12 C60 H24 Sn48 Te48 Mg24"
_cell_length_a       30.0488
_cell_length_b       30.01
_cell_length_c       8.15151
_cell_angle_alpha    122.504
_cell_angle_beta     85.6434
_cell_angle_gamma    119.831

_symmetry_space_group_name_H-M    'P1'
_space_group_IT_number       1

loop_
  _space_group_symop_operation_xyz
  'x, y, z'

loop_
  _atom_site_type_symbol
  _atom_site_label
  _atom_site_symmetry_multiplicity
  _atom_site_fract_x
  _atom_site_fract_y
  _atom_site_fract_z
  _atom_site_occupancy
  O   O1        1.0  0.29615  0.56264  0.99881  1.0000
  N   N1        1.0  0.39135  0.58582  0.02219  1.0000
  C   C1        1.0  0.31262  0.61052  0.99750  1.0000
  C   C2        1.0  0.40450  0.63468  0.01725  1.0000
  C   C3        1.0  0.36777  0.64873  0.00509  1.0000
  H   H1        1.0  0.44530  0.66492  0.02339  1.0000
  H   H2        1.0  0.35090  0.56176  0.01832  1.0000
  O   O2        1.0  0.43567  0.73569  0.00708  1.0000
  N   N2        1.0  0.41452  0.80490  0.97707  1.0000
  C   C4        1.0  0.38716  0.70319  0.00062  1.0000
  C   C5        1.0  0.36511  0.76961  0.97988  1.0000
  C   C6        1.0  0.34954  0.71920  0.98996  1.0000
  H   H3        1.0  0.33546  0.77967  0.97208  1.0000
  H   H4        1.0  0.43843  0.78963  0.98654  1.0000
  O   O3        1.0  0.26286  0.70036  0.98850  1.0000
  N   N3        1.0  0.18819  0.60670  0.98809  1.0000
  C   C7        1.0  0.29435  0.68369  0.98963  1.0000
  C   C8        1.0  0.22452  0.59352  0.99151  1.0000
  C   C9        1.0  0.27657  0.62916  0.99084  1.0000
  H   H5        1.0  0.21353  0.55393  0.99693  1.0000
  H   H6        1.0  0.20523  0.64723  0.98945  1.0000
  O   O4        1.0  0.70316  0.43648  0.99969  1.0000
  N   N4        1.0  0.60915  0.41779  0.98928  1.0000
  C   C10       1.0  0.68581  0.38872  0.00233  1.0000
  C   C11       1.0  0.59538  0.36887  0.99524  1.0000
  C   C12       1.0  0.63089  0.35266  0.00162  1.0000
  H   H7        1.0  0.55478  0.34022  0.99523  1.0000
  H   H8        1.0  0.64923  0.44048  0.98792  1.0000
  O   O5        1.0  0.56206  0.26701  0.00417  1.0000
  N   N5        1.0  0.58109  0.19521  0.02965  1.0000
  C   C13       1.0  0.61050  0.29814  0.00735  1.0000
  C   C14       1.0  0.63063  0.23005  0.02618  1.0000
  C   C15       1.0  0.64707  0.28051  0.01538  1.0000
  H   H9        1.0  0.65953  0.21867  0.03073  1.0000
  H   H10       1.0  0.55733  0.21042  0.01941  1.0000
  O   O6        1.0  0.73194  0.29427  0.99841  1.0000
  N   N6        1.0  0.80768  0.38642  0.98995  1.0000
  C   C16       1.0  0.70171  0.31320  0.00536  1.0000
  C   C17       1.0  0.77206  0.40125  0.99426  1.0000
  C   C18       1.0  0.72043  0.36765  0.00242  1.0000
  H   H11       1.0  0.78351  0.44136  0.99142  1.0000
  H   H12       1.0  0.79090  0.34636  0.99030  1.0000
  O   O7        1.0  0.29688  0.56244  0.49828  1.0000
  N   N7        1.0  0.39218  0.58495  0.52520  1.0000
  C   C19       1.0  0.31398  0.61036  0.49667  1.0000
  C   C20       1.0  0.40557  0.63346  0.51757  1.0000
  C   C21       1.0  0.36927  0.64789  0.50392  1.0000
  H   H13       1.0  0.44637  0.66315  0.52217  1.0000
  H   H14       1.0  0.35172  0.56092  0.52041  1.0000
  O   O8        1.0  0.43784  0.73355  0.50127  1.0000
  N   N8        1.0  0.41869  0.80498  0.47623  1.0000
  C   C22       1.0  0.38934  0.70214  0.49730  1.0000
  C   C23       1.0  0.36915  0.77036  0.48026  1.0000
  C   C24       1.0  0.35256  0.71934  0.48810  1.0000
  H   H15       1.0  0.34024  0.78179  0.47657  1.0000
  H   H16       1.0  0.44201  0.78877  0.48253  1.0000
  O   O9        1.0  0.26649  0.70253  0.49117  1.0000
  N   N9        1.0  0.19070  0.60906  0.48988  1.0000
  C   C25       1.0  0.29732  0.68481  0.48974  1.0000
  C   C26       1.0  0.22646  0.59488  0.49085  1.0000
  C   C27       1.0  0.27866  0.62987  0.48992  1.0000
  H   H17       1.0  0.21482  0.55497  0.49525  1.0000
  H   H18       1.0  0.20822  0.65007  0.49397  1.0000
  O   O10       1.0  0.70334  0.43630  0.49823  1.0000
  N   N10       1.0  0.60905  0.41570  0.48830  1.0000
  C   C28       1.0  0.68689  0.38868  0.50087  1.0000
  C   C29       1.0  0.59583  0.36689  0.49383  1.0000
  C   C30       1.0  0.63218  0.35173  0.50025  1.0000
  H   H19       1.0  0.55536  0.33774  0.49359  1.0000
  H   H20       1.0  0.64921  0.43875  0.48734  1.0000
  O   O11       1.0  0.56460  0.26536  0.50168  1.0000
  N   N11       1.0  0.58587  0.19602  0.53161  1.0000
  C   C31       1.0  0.61293  0.29741  0.50566  1.0000
  C   C32       1.0  0.63509  0.23107  0.52668  1.0000
  C   C33       1.0  0.65045  0.28100  0.51401  1.0000
  H   H21       1.0  0.66458  0.22057  0.53232  1.0000
  H   H22       1.0  0.56165  0.21066  0.52014  1.0000
  O   O12       1.0  0.73618  0.29722  0.50038  1.0000
  N   N12       1.0  0.80996  0.38891  0.48709  1.0000
  C   C34       1.0  0.70499  0.31481  0.50503  1.0000
  C   C35       1.0  0.77384  0.40308  0.49156  1.0000
  C   C36       1.0  0.72250  0.36881  0.50085  1.0000
  H   H23       1.0  0.78443  0.44278  0.48755  1.0000
  H   H24       1.0  0.79357  0.34912  0.48917  1.0000
  C  Sn1       1.0  0.54988  0.76005  0.95267  1.0000
  C   C37       1.0  0.49804  0.74072  0.97262  1.0000
  C  Sn2       1.0  0.40453  0.52115  0.03717  1.0000
  C  Sn3       1.0  0.43239  0.50082  0.08286  1.0000
  C   C38       1.0  0.48420  0.52016  0.06294  1.0000
  C  Sn4       1.0  0.57774  0.73972  0.99836  1.0000
  O  Te1       1.0  0.57363  0.79930  0.88790  1.0000
  O  Te2       1.0  0.35267  0.50243  0.05590  1.0000
  O  Te3       1.0  0.40859  0.46154  0.14766  1.0000
  O  Te4       1.0  0.62957  0.75845  0.97966  1.0000
  Mg  Mg1       1.0  0.33734  0.44879  0.14971  1.0000
  Mg  Mg2       1.0  0.64495  0.81211  0.88596  1.0000
  C  Sn5       1.0  0.35768  0.75570  0.04636  1.0000
  C   C39       1.0  0.40975  0.79092  0.04201  1.0000
  C  Sn6       1.0  0.51002  0.94576  0.98101  1.0000
  C  Sn7       1.0  0.48881  0.88377  0.92303  1.0000
  C   C40       1.0  0.43677  0.84858  0.92735  1.0000
  C  Sn8       1.0  0.40545  0.87402  0.98837  1.0000
  O  Te5       1.0  0.32712  0.78211  0.10784  1.0000
  O  Te6       1.0  0.56197  0.98188  0.97797  1.0000
  O  Te7       1.0  0.51942  0.85737  0.86152  1.0000
  O  Te8       1.0  0.35353  0.83793  0.99139  1.0000
  Mg  Mg3       1.0  0.58795  0.92516  0.88268  1.0000
  Mg  Mg4       1.0  0.25853  0.71427  0.08655  1.0000
  C  Sn9       1.0  0.12795  0.75127  0.95088  1.0000
  C   C41       1.0  0.09683  0.69550  0.93776  1.0000
  C  Sn10      1.0  0.12062  0.66945  0.96610  1.0000
  C  Sn11      1.0  0.10772  0.51948  0.00857  1.0000
  C   C42       1.0  0.13882  0.57522  0.02170  1.0000
  C  Sn12      1.0  0.18403  0.78162  0.99334  1.0000
  O  Te9       1.0  0.10331  0.77648  0.92201  1.0000
  O  Te10      1.0  0.08868  0.61364  0.95219  1.0000
  O  Te11      1.0  0.13235  0.49422  0.03744  1.0000
  O  Te12      1.0  0.14697  0.65708  0.00728  1.0000
  Mg  Mg5       1.0  0.07186  0.41739  0.00348  1.0000
  Mg  Mg6       1.0  0.16383  0.85339  0.95612  1.0000
  C  Sn13      1.0  0.57894  0.58303  0.94469  1.0000
  C   C43       1.0  0.63173  0.60439  0.93579  1.0000
  C  Sn14      1.0  0.66585  0.66459  0.98086  1.0000
  C  Sn15      1.0  0.57785  0.52398  0.03610  1.0000
  C   C44       1.0  0.52510  0.50263  0.04501  1.0000
  C  Sn16      1.0  0.55992  0.62274  0.99992  1.0000
  O  Te13      1.0  0.54554  0.52268  0.89902  1.0000
  O  Te14      1.0  0.71845  0.68489  0.97086  1.0000
  O  Te15      1.0  0.61131  0.58438  0.08177  1.0000
  O  Te16      1.0  0.43837  0.42213  0.00994  1.0000
  Mg  Mg7       1.0  0.67966  0.59070  0.04685  1.0000
  Mg  Mg8       1.0  0.47714  0.51634  0.93409  1.0000
  C  Sn17      1.0  0.97807  0.05100  0.91787  1.0000
  C   C45       1.0  0.00192  0.02478  0.94486  1.0000
  C  Sn18      1.0  0.98714  0.88084  0.03861  1.0000
  C  Sn19      1.0  0.01813  0.94478  0.10693  1.0000
  C   C46       1.0  0.99428  0.97097  0.07996  1.0000
  C  Sn20      1.0  0.00906  0.11494  0.98619  1.0000
  O  Te17      1.0  0.92383  0.01376  0.82376  1.0000
  O  Te18      1.0  0.01011  0.85357  0.06384  1.0000
  O  Te19      1.0  0.07241  0.98201  0.20109  1.0000
  O  Te20      1.0  0.98609  0.14218  0.96098  1.0000
  Mg  Mg9       1.0  0.08549  0.92354  0.20093  1.0000
  Mg  Mg10      1.0  0.91071  0.07227  0.82401  1.0000
  C  Sn21      1.0  0.93083  0.40702  0.93324  1.0000
  C   C47       1.0  0.96078  0.46077  0.93438  1.0000
  C  Sn22      1.0  0.94146  0.49865  0.97705  1.0000
  C  Sn23      1.0  0.82219  0.30217  0.01959  1.0000
  C   C48       1.0  0.79227  0.24845  0.01846  1.0000
  C  Sn24      1.0  0.88053  0.39086  0.97577  1.0000
  O  Te21      1.0  0.95093  0.36984  0.89019  1.0000
  O  Te22      1.0  0.97212  0.55215  0.97724  1.0000
  O  Te23      1.0  0.80210  0.33941  0.06264  1.0000
  O  Te24      1.0  0.84990  0.33740  0.97561  1.0000
  Mg  Mg11      1.0  0.85866  0.40757  0.04481  1.0000
  Mg  Mg12      1.0  0.89435  0.30164  0.90816  1.0000
  C  Sn25      1.0  0.41002  0.51332  0.58849  1.0000
  C   C49       1.0  0.42534  0.56477  0.58365  1.0000
  C  Sn26      1.0  0.47122  0.59022  0.52552  1.0000
  C  Sn27      1.0  0.50244  0.56367  0.47095  1.0000
  C   C50       1.0  0.48711  0.51225  0.47576  1.0000
  C  Sn28      1.0  0.44123  0.48677  0.53391  1.0000
  O  Te25      1.0  0.36399  0.48863  0.64708  1.0000
  O  Te26      1.0  0.48574  0.64168  0.52193  1.0000
  O  Te27      1.0  0.54850  0.58841  0.41233  1.0000
  O  Te28      1.0  0.42670  0.43534  0.53748  1.0000
  Mg  Mg13      1.0  0.55180  0.65863  0.43141  1.0000
  Mg  Mg14      1.0  0.36064  0.41832  0.62788  1.0000
  C  Sn29      1.0  0.51292  0.92208  0.42521  1.0000
  C   C51       1.0  0.49084  0.95436  0.43255  1.0000
  C  Sn30      1.0  0.44206  0.94145  0.47911  1.0000
  C  Sn31      1.0  0.41479  0.89534  0.51930  1.0000
  C   C52       1.0  0.43687  0.86310  0.51199  1.0000
  C  Sn32      1.0  0.48565  0.87597  0.46540  1.0000
  O  Te29      1.0  0.56173  0.93575  0.37835  1.0000
  O  Te30      1.0  0.42077  0.97432  0.48548  1.0000
  O  Te31      1.0  0.36594  0.88169  0.56618  1.0000
  O  Te32      1.0  0.50693  0.84314  0.45906  1.0000
  Mg  Mg15      1.0  0.35320  0.93900  0.55642  1.0000
  Mg  Mg16      1.0  0.57451  0.87844  0.38824  1.0000
  C  Sn33      1.0  0.06282  0.57774  0.47123  1.0000
  C   C53       1.0  0.03048  0.51955  0.44225  1.0000
  C  Sn34      1.0  0.05291  0.48964  0.45185  1.0000
  C  Sn35      1.0  0.10883  0.51851  0.49137  1.0000
  C   C54       1.0  0.14113  0.57667  0.52036  1.0000
  C  Sn36      1.0  0.11874  0.60662  0.51075  1.0000
  O  Te33      1.0  0.03954  0.60679  0.46098  1.0000
  O  Te34      1.0  0.01977  0.43147  0.42230  1.0000
  O  Te35      1.0  0.13210  0.48941  0.50160  1.0000
  O  Te36      1.0  0.15185  0.66476  0.54031  1.0000
  Mg  Mg17      1.0  0.07030  0.41049  0.45100  1.0000
  Mg  Mg18      1.0  0.10136  0.68579  0.51175  1.0000
  C  Sn37      1.0  0.50339  0.43734  0.56785  1.0000
  C   C55       1.0  0.51877  0.48862  0.56191  1.0000
  C  Sn38      1.0  0.56391  0.51281  0.49847  1.0000
  C  Sn39      1.0  0.59429  0.48515  0.43962  1.0000
  C   C56       1.0  0.57890  0.43390  0.44555  1.0000
  C  Sn40      1.0  0.53377  0.40968  0.50900  1.0000
  O  Te37      1.0  0.45812  0.41392  0.63177  1.0000
  O  Te38      1.0  0.57851  0.56412  0.49387  1.0000
  O  Te39      1.0  0.63959  0.50862  0.37568  1.0000
  O  Te40      1.0  0.51916  0.35840  0.51358  1.0000
  Mg  Mg19      1.0  0.64334  0.57915  0.39541  1.0000
  Mg  Mg20      1.0  0.45432  0.34331  0.61191  1.0000
  C  Sn41      1.0  0.98327  0.05252  0.42571  1.0000
  C   C57       1.0  0.00728  0.02615  0.45077  1.0000
  C  Sn42      1.0  0.06173  0.06213  0.54011  1.0000
  C  Sn43      1.0  0.59602  0.12582  0.60591  1.0000
  C   C58       1.0  0.57201  0.15217  0.58087  1.0000
  C  Sn44      1.0  0.51757  0.11621  0.49150  1.0000
  O  Te41      1.0  0.92878  0.01567  0.33600  1.0000
  O  Te42      1.0  0.08484  0.03472  0.56349  1.0000
  O  Te43      1.0  0.65056  0.16266  0.69566  1.0000
  O  Te44      1.0  0.49446  0.14360  0.46815  1.0000
  Mg  Mg21      1.0  0.16056  0.10413  0.69445  1.0000
  Mg  Mg22      1.0  0.41874  0.07425  0.33731  1.0000
  C  Sn45      1.0  0.93304  0.40953  0.43069  1.0000
  C   C59       1.0  0.96326  0.46374  0.43445  1.0000
  C  Sn46      1.0  0.94411  0.50190  0.47896  1.0000
  C  Sn47      1.0  0.89372  0.48556  0.52071  1.0000
  C   C60       1.0  0.86353  0.43139  0.51698  1.0000
  C  Sn48      1.0  0.88264  0.39319  0.47244  1.0000
  O  Te45      1.0  0.95297  0.37208  0.38584  1.0000
  O  Te46      1.0  0.97504  0.55585  0.48175  1.0000
  O  Te47      1.0  0.87380  0.52307  0.56558  1.0000
  O  Te48      1.0  0.85175  0.33928  0.46968  1.0000
  Mg  Mg23      1.0  0.93072  0.59183  0.55106  1.0000
  Mg  Mg24      1.0  0.89604  0.30328  0.40049  1.0000
