data_image0
_chemical_formula_structural       ONC9H6ONC3H2ONC3H2ONC3H2ONC3H2ONC9H6ONC9H6ONC9H6ONC9H6ONC3H2ONC3H2ONC9H6SnCSn2CSnTe4Mg2SnCSn2CSnTe4Mg2SnCSn2CSnTe4Mg2SnCSn2CSnTe4Mg2SnCSn2CSnTe4Mg2SnCSn2CSnTe4Mg2
_chemical_formula_sum              "O12 N12 C84 H48 Sn24 Te24 Mg12"
_cell_length_a       30.0488
_cell_length_b       30.01
_cell_length_c       8.15151
_cell_angle_alpha    122.504
_cell_angle_beta     85.6434
_cell_angle_gamma    119.831

_symmetry_space_group_name_H-M    'P1'
_space_group_IT_number       1

loop_
  _space_group_symop_operation_xyz
  'x, y, z'

loop_
  _atom_site_type_symbol
  _atom_site_label
  _atom_site_symmetry_multiplicity
  _atom_site_fract_x
  _atom_site_fract_y
  _atom_site_fract_z
  _atom_site_occupancy
  O   O1        1.0  0.29615  0.56264  0.99881  1.0000
  N   N1        1.0  0.39135  0.58582  0.02219  1.0000
  C   C1        1.0  0.31262  0.61052  0.99750  1.0000
  C   C2        1.0  0.40450  0.63468  0.01725  1.0000
  C   C3        1.0  0.42403  0.56565  0.02631  1.0000
  C   C4        1.0  0.47698  0.59363  0.01558  1.0000
  C   C5        1.0  0.50639  0.56907  0.01010  1.0000
  C   C6        1.0  0.48523  0.51644  0.01663  1.0000
  C   C7        1.0  0.43227  0.48990  0.03110  1.0000
  C   C8        1.0  0.40224  0.51361  0.03520  1.0000
  C   C9        1.0  0.36777  0.64873  0.00509  1.0000
  H   H1        1.0  0.44530  0.66492  0.02339  1.0000
  H   H2        1.0  0.49488  0.63321  0.00457  1.0000
  H   H3        1.0  0.35090  0.56176  0.01832  1.0000
  H   H4        1.0  0.36153  0.49220  0.04695  1.0000
  H   H5        1.0  0.54671  0.59121  0.99638  1.0000
  H   H6        1.0  0.41387  0.45030  0.04220  1.0000
  O   O2        1.0  0.43567  0.73569  0.00708  1.0000
  N   N2        1.0  0.41452  0.80490  0.97707  1.0000
  C   C10       1.0  0.38716  0.70319  0.00062  1.0000
  C   C11       1.0  0.36511  0.76961  0.97988  1.0000
  C   C12       1.0  0.34954  0.71920  0.98996  1.0000
  H   H7        1.0  0.33546  0.77967  0.97208  1.0000
  H   H8        1.0  0.43843  0.78963  0.98654  1.0000
  O   O3        1.0  0.26286  0.70036  0.98850  1.0000
  N   N3        1.0  0.18819  0.60670  0.98809  1.0000
  C   C13       1.0  0.29435  0.68369  0.98963  1.0000
  C   C14       1.0  0.22452  0.59352  0.99151  1.0000
  C   C15       1.0  0.27657  0.62916  0.99084  1.0000
  H   H9        1.0  0.21353  0.55393  0.99693  1.0000
  H   H10       1.0  0.20523  0.64723  0.98945  1.0000
  O   O4        1.0  0.70316  0.43648  0.99969  1.0000
  N   N4        1.0  0.60915  0.41779  0.98928  1.0000
  C   C16       1.0  0.68581  0.38872  0.00233  1.0000
  C   C17       1.0  0.59538  0.36887  0.99524  1.0000
  C   C18       1.0  0.63089  0.35266  0.00162  1.0000
  H   H11       1.0  0.55478  0.34022  0.99523  1.0000
  H   H12       1.0  0.64923  0.44048  0.98792  1.0000
  O   O5        1.0  0.56206  0.26701  0.00417  1.0000
  N   N5        1.0  0.58109  0.19521  0.02965  1.0000
  C   C19       1.0  0.61050  0.29814  0.00735  1.0000
  C   C20       1.0  0.63063  0.23005  0.02618  1.0000
  C   C21       1.0  0.64707  0.28051  0.01538  1.0000
  H   H13       1.0  0.65953  0.21867  0.03073  1.0000
  H   H14       1.0  0.55733  0.21042  0.01941  1.0000
  O   O6        1.0  0.73194  0.29427  0.99841  1.0000
  N   N6        1.0  0.80768  0.38642  0.98995  1.0000
  C   C22       1.0  0.70171  0.31320  0.00536  1.0000
  C   C23       1.0  0.77206  0.40125  0.99426  1.0000
  C   C24       1.0  0.86050  0.41786  0.98481  1.0000
  C   C25       1.0  0.88354  0.47060  0.97918  1.0000
  C   C26       1.0  0.93677  0.50086  0.97998  1.0000
  C   C27       1.0  0.96971  0.48095  0.98933  1.0000
  C   C28       1.0  0.94566  0.42788  0.99463  1.0000
  C   C29       1.0  0.89231  0.39655  0.99069  1.0000
  C   C30       1.0  0.72043  0.36765  0.00242  1.0000
  H   H15       1.0  0.78351  0.44136  0.99142  1.0000
  H   H16       1.0  0.85988  0.48759  0.96998  1.0000
  H   H17       1.0  0.79090  0.34636  0.99030  1.0000
  H   H18       1.0  0.87529  0.35641  0.99870  1.0000
  H   H19       1.0  0.95245  0.54006  0.96794  1.0000
  H   H20       1.0  0.96916  0.41114  0.00708  1.0000
  O   O7        1.0  0.29688  0.56244  0.49828  1.0000
  N   N7        1.0  0.39218  0.58495  0.52520  1.0000
  C   C31       1.0  0.31398  0.61036  0.49667  1.0000
  C   C32       1.0  0.40557  0.63346  0.51757  1.0000
  C   C33       1.0  0.42461  0.56443  0.52889  1.0000
  C   C34       1.0  0.47816  0.59370  0.52589  1.0000
  C   C35       1.0  0.50739  0.56878  0.51869  1.0000
  C   C36       1.0  0.48538  0.51436  0.51540  1.0000
  C   C37       1.0  0.43178  0.48639  0.52176  1.0000
  C   C38       1.0  0.40199  0.51062  0.52839  1.0000
  C   C39       1.0  0.36927  0.64789  0.50392  1.0000
  H   H21       1.0  0.44637  0.66315  0.52217  1.0000
  H   H22       1.0  0.49683  0.63496  0.52352  1.0000
  H   H23       1.0  0.35172  0.56092  0.52041  1.0000
  H   H24       1.0  0.36079  0.48806  0.53410  1.0000
  H   H25       1.0  0.54834  0.59228  0.51242  1.0000
  H   H26       1.0  0.41266  0.44513  0.52414  1.0000
  O   O8        1.0  0.43784  0.73355  0.50127  1.0000
  N   N8        1.0  0.41869  0.80498  0.47623  1.0000
  C   C40       1.0  0.38934  0.70214  0.49730  1.0000
  C   C41       1.0  0.36915  0.77036  0.48026  1.0000
  C   C42       1.0  0.44038  0.85800  0.47442  1.0000
  C   C43       1.0  0.41095  0.88222  0.47208  1.0000
  C   C44       1.0  0.43569  0.93704  0.48104  1.0000
  C   C45       1.0  0.49024  0.97020  0.49168  1.0000
  C   C46       1.0  0.51853  0.94386  0.48765  1.0000
  C   C47       1.0  0.49436  0.88899  0.47843  1.0000
  C   C48       1.0  0.35256  0.71934  0.48810  1.0000
  H   H27       1.0  0.34024  0.78179  0.47657  1.0000
  H   H28       1.0  0.36884  0.85863  0.46481  1.0000
  H   H29       1.0  0.44201  0.78877  0.48253  1.0000
  H   H30       1.0  0.51717  0.86983  0.47670  1.0000
  H   H31       1.0  0.41159  0.95457  0.48112  1.0000
  H   H32       1.0  0.56039  0.96633  0.49064  1.0000
  O   O9        1.0  0.26649  0.70253  0.49117  1.0000
  N   N9        1.0  0.19070  0.60906  0.48988  1.0000
  C   C49       1.0  0.29732  0.68481  0.48974  1.0000
  C   C50       1.0  0.22646  0.59488  0.49085  1.0000
  C   C51       1.0  0.13748  0.57718  0.49023  1.0000
  C   C52       1.0  0.11085  0.51725  0.45144  1.0000
  C   C53       1.0  0.05763  0.48766  0.45126  1.0000
  C   C54       1.0  0.02854  0.51591  0.49004  1.0000
  C   C55       1.0  0.05609  0.57601  0.52822  1.0000
  C   C56       1.0  0.10920  0.60603  0.52768  1.0000
  C   C57       1.0  0.27866  0.62987  0.48992  1.0000
  H   H33       1.0  0.21482  0.55497  0.49525  1.0000
  H   H34       1.0  0.13126  0.49306  0.41761  1.0000
  H   H35       1.0  0.20822  0.65007  0.49397  1.0000
  H   H36       1.0  0.12945  0.65247  0.55785  1.0000
  H   H37       1.0  0.03810  0.44078  0.41685  1.0000
  H   H38       1.0  0.03600  0.60051  0.56152  1.0000
  O   O10       1.0  0.70334  0.43630  0.49823  1.0000
  N   N10       1.0  0.60905  0.41570  0.48830  1.0000
  C   C58       1.0  0.68689  0.38868  0.50087  1.0000
  C   C59       1.0  0.59583  0.36689  0.49383  1.0000
  C   C60       1.0  0.63218  0.35173  0.50025  1.0000
  H   H39       1.0  0.55536  0.33774  0.49359  1.0000
  H   H40       1.0  0.64921  0.43875  0.48734  1.0000
  O   O11       1.0  0.56460  0.26536  0.50168  1.0000
  N   N11       1.0  0.58587  0.19602  0.53161  1.0000
  C   C61       1.0  0.61293  0.29741  0.50566  1.0000
  C   C62       1.0  0.63509  0.23107  0.52668  1.0000
  C   C63       1.0  0.65045  0.28100  0.51401  1.0000
  H   H41       1.0  0.66458  0.22057  0.53232  1.0000
  H   H42       1.0  0.56165  0.21066  0.52014  1.0000
  O   O12       1.0  0.73618  0.29722  0.50038  1.0000
  N   N12       1.0  0.80996  0.38891  0.48709  1.0000
  C   C64       1.0  0.70499  0.31481  0.50503  1.0000
  C   C65       1.0  0.77384  0.40308  0.49156  1.0000
  C   C66       1.0  0.86283  0.42068  0.48318  1.0000
  C   C67       1.0  0.88616  0.47400  0.48055  1.0000
  C   C68       1.0  0.93949  0.50426  0.48218  1.0000
  C   C69       1.0  0.97209  0.48377  0.48956  1.0000
  C   C70       1.0  0.94784  0.43026  0.49251  1.0000
  C   C71       1.0  0.89442  0.39896  0.48768  1.0000
  C   C72       1.0  0.72250  0.36881  0.50085  1.0000
  H   H43       1.0  0.78443  0.44278  0.48755  1.0000
  H   H44       1.0  0.86269  0.49137  0.47288  1.0000
  H   H45       1.0  0.79357  0.34912  0.48917  1.0000
  H   H46       1.0  0.87706  0.35848  0.49407  1.0000
  H   H47       1.0  0.95543  0.54371  0.47124  1.0000
  H   H48       1.0  0.97130  0.41341  0.50448  1.0000
  C  Sn1       1.0  0.43279  0.72934  0.03145  1.0000
  C   C73       1.0  0.38023  0.69297  0.02912  1.0000
  C  Sn2       1.0  0.41030  0.88071  0.98534  1.0000
  C  Sn3       1.0  0.42421  0.92539  0.94288  1.0000
  C   C74       1.0  0.47673  0.96172  0.94519  1.0000
  C  Sn4       1.0  0.51567  0.95434  0.98899  1.0000
  O  Te1       1.0  0.47102  0.72113  0.07559  1.0000
  O  Te2       1.0  0.35803  0.84382  0.98397  1.0000
  O  Te3       1.0  0.38591  0.93358  0.89872  1.0000
  O  Te4       1.0  0.56791  0.99119  0.99033  1.0000
  Mg  Mg1       1.0  0.32012  0.87227  0.91518  1.0000
  Mg  Mg2       1.0  0.53686  0.78244  0.05901  1.0000
  C  Sn5       1.0  0.57386  0.50357  0.93264  1.0000
  C   C75       1.0  0.52196  0.48415  0.95183  1.0000
  C  Sn6       1.0  0.42792  0.26346  0.01202  1.0000
  C  Sn7       1.0  0.45531  0.24207  0.05404  1.0000
  C   C76       1.0  0.50718  0.26149  0.03489  1.0000
  C  Sn8       1.0  0.60125  0.48218  0.97466  1.0000
  O  Te5       1.0  0.59814  0.54396  0.87225  1.0000
  O  Te6       1.0  0.37600  0.24468  0.03007  1.0000
  O  Te7       1.0  0.43097  0.20165  0.11446  1.0000
  O  Te8       1.0  0.65313  0.50097  0.95664  1.0000
  Mg  Mg3       1.0  0.35986  0.18929  0.11730  1.0000
  Mg  Mg4       1.0  0.66933  0.55638  0.86953  1.0000
  C  Sn9       1.0  0.12795  0.75127  0.95088  1.0000
  C   C77       1.0  0.09683  0.69550  0.93776  1.0000
  C  Sn10      1.0  0.12062  0.66945  0.96610  1.0000
  C  Sn11      1.0  0.10772  0.51948  0.00857  1.0000
  C   C78       1.0  0.13882  0.57522  0.02170  1.0000
  C  Sn12      1.0  0.18403  0.78162  0.99334  1.0000
  O  Te9       1.0  0.10331  0.77648  0.92201  1.0000
  O  Te10      1.0  0.08868  0.61364  0.95219  1.0000
  O  Te11      1.0  0.13235  0.49422  0.03744  1.0000
  O  Te12      1.0  0.14697  0.65708  0.00728  1.0000
  Mg  Mg5       1.0  0.07186  0.41739  0.00348  1.0000
  Mg  Mg6       1.0  0.16383  0.85339  0.95612  1.0000
  C  Sn13      1.0  0.57564  0.08926  0.11054  1.0000
  C   C79       1.0  0.52149  0.04597  0.06766  1.0000
  C  Sn14      1.0  0.55245  0.22704  0.98241  1.0000
  C  Sn15      1.0  0.56891  0.27198  0.93898  1.0000
  C   C80       1.0  0.62303  0.31523  0.98183  1.0000
  C  Sn16      1.0  0.59210  0.13420  0.06712  1.0000
  O  Te13      1.0  0.61295  0.08764  0.19576  1.0000
  O  Te14      1.0  0.49855  0.18329  0.94094  1.0000
  O  Te15      1.0  0.53154  0.27356  0.85371  1.0000
  O  Te16      1.0  0.64597  0.17790  0.10854  1.0000
  Mg  Mg7       1.0  0.46280  0.20429  0.82466  1.0000
  Mg  Mg8       1.0  0.68176  0.15692  0.22473  1.0000
  C  Sn17      1.0  0.57425  0.50176  0.43286  1.0000
  C   C81       1.0  0.52209  0.48186  0.44908  1.0000
  C  Sn18      1.0  0.49657  0.44093  0.50704  1.0000
  C  Sn19      1.0  0.52377  0.41948  0.54981  1.0000
  C   C82       1.0  0.57590  0.43939  0.53362  1.0000
  C  Sn20      1.0  0.60145  0.48031  0.47563  1.0000
  O  Te17      1.0  0.59899  0.54269  0.37467  1.0000
  O  Te18      1.0  0.44441  0.42167  0.52214  1.0000
  O  Te19      1.0  0.49899  0.37852  0.60803  1.0000
  O  Te20      1.0  0.65359  0.49958  0.46056  1.0000
  Mg  Mg9       1.0  0.42766  0.36563  0.60717  1.0000
  Mg  Mg10      1.0  0.67038  0.55564  0.37565  1.0000
  C  Sn21      1.0  0.07822  0.08992  0.61048  1.0000
  C   C83       1.0  0.02414  0.04694  0.57031  1.0000
  C  Sn22      1.0  0.98585  0.04823  0.48908  1.0000
  C  Sn23      1.0  0.50514  0.09340  0.44700  1.0000
  C   C84       1.0  0.55918  0.13634  0.48712  1.0000
  C  Sn24      1.0  0.59750  0.13509  0.56839  1.0000
  O  Te21      1.0  0.11580  0.08777  0.69168  1.0000
  O  Te22      1.0  0.93203  0.00479  0.45028  1.0000
  O  Te23      1.0  0.46750  0.09552  0.36573  1.0000
  O  Te24      1.0  0.65130  0.17849  0.60715  1.0000
  Mg  Mg11      1.0  0.89580  0.02650  0.33916  1.0000
  Mg  Mg12      1.0  0.68756  0.15680  0.71817  1.0000
