data_image0
_chemical_formula_structural       C16H8N4C16H8C8Cu2CHCHCHCHCHCHCHCHN12C16H8N4C16H8C8Cu2CHCHCHCHCHCHCHCHN12SnCSn2CSnTe4Mg2SnCSn2CSnTe4Mg2SnCSn2CSnTe4Mg2SnCSn2CSnTe4Mg2SnCSn2CSnTe4Mg2SnCSn2CSnTe4Mg2SnCSn2CSnTe4Mg2SnCSn2CSnTe4Mg2SnCSn2CSnTe4Mg2SnCSn2CSnTe4Mg2SnCSn2CSnTe4Mg2SnCSn2CSnTe4Mg2SnCSn2CSnTe4Mg2SnCSn2CSnTe4Mg2SnCSn2CSnTe4Mg2SnCSn2CSnTe4Mg2SnCSn2CSnTe4Mg2SnCSn2CSnTe4Mg2SnCSn2CSnTe4Mg2SnCSn2CSnTe4Mg2SnCSn2CSnTe4Mg2SnCSn2CSnTe4Mg2SnCSn2CSnTe4Mg2SnCSn2CSnTe4Mg2
_chemical_formula_sum              "C144 H48 N32 Cu4 Sn96 Te96 Mg48"
_cell_length_a       38.5308
_cell_length_b       33.6665
_cell_length_c       9.87309
_cell_angle_alpha    76.1457
_cell_angle_beta     92.7529
_cell_angle_gamma    90.0191

_symmetry_space_group_name_H-M    'P1'
_space_group_IT_number       1

loop_
  _space_group_symop_operation_xyz
  'x, y, z'

loop_
  _atom_site_type_symbol
  _atom_site_label
  _atom_site_symmetry_multiplicity
  _atom_site_fract_x
  _atom_site_fract_y
  _atom_site_fract_z
  _atom_site_occupancy
  C   C1        1.0  0.97315  0.91479  0.25687  1.0000
  C   C2        1.0  0.47474  0.41492  0.26071  1.0000
  C   C3        1.0  0.03056  0.08535  0.23898  1.0000
  C   C4        1.0  0.53049  0.58641  0.23073  1.0000
  C   C5        1.0  0.03044  0.91490  0.24938  1.0000
  C   C6        1.0  0.53213  0.41531  0.26517  1.0000
  C   C7        1.0  0.97321  0.08509  0.24307  1.0000
  C   C8        1.0  0.47313  0.58571  0.23464  1.0000
  C   C9        1.0  0.98399  0.87340  0.26389  1.0000
  C   C10       1.0  0.48634  0.37286  0.29083  1.0000
  C   C11       1.0  0.01917  0.12717  0.22164  1.0000
  C   C12       1.0  0.51881  0.62847  0.20236  1.0000
  C   C13       1.0  0.01923  0.87324  0.26272  1.0000
  C   C14       1.0  0.52167  0.37315  0.29371  1.0000
  C   C15       1.0  0.98389  0.12699  0.22508  1.0000
  C   C16       1.0  0.48343  0.62798  0.20542  1.0000
  H   H1        1.0  0.96666  0.84776  0.26891  1.0000
  H   H2        1.0  0.46956  0.34646  0.31046  1.0000
  H   H3        1.0  0.03613  0.15338  0.20681  1.0000
  H   H4        1.0  0.53544  0.65493  0.18166  1.0000
  H   H5        1.0  0.03626  0.84711  0.27077  1.0000
  H   H6        1.0  0.53936  0.34717  0.31491  1.0000
  H   H7        1.0  0.96646  0.15288  0.21545  1.0000
  H   H8        1.0  0.46579  0.65392  0.18691  1.0000
  N   N1        1.0  0.44989  0.50013  0.24713  1.0000
  N   N2        1.0  0.94929  0.00016  0.24716  1.0000
  N   N3        1.0  0.55549  0.50098  0.24816  1.0000
  N   N4        1.0  0.05440  0.00025  0.24152  1.0000
  C   C17       1.0  0.42849  0.46742  0.24148  1.0000
  C   C18       1.0  0.92782  0.96683  0.25545  1.0000
  C   C19       1.0  0.57683  0.53402  0.24911  1.0000
  C   C20       1.0  0.07608  0.03297  0.24401  1.0000
  C   C21       1.0  0.57732  0.46823  0.24934  1.0000
  C   C22       1.0  0.07588  0.96765  0.23668  1.0000
  C   C23       1.0  0.42811  0.53250  0.25177  1.0000
  C   C24       1.0  0.92784  0.03262  0.25224  1.0000
  C   C25       1.0  0.39262  0.47998  0.23933  1.0000
  C   C26       1.0  0.89225  0.97857  0.26692  1.0000
  C   C27       1.0  0.61280  0.52140  0.25405  1.0000
  C   C28       1.0  0.11183  0.02023  0.24348  1.0000
  C   C29       1.0  0.61303  0.48122  0.24830  1.0000
  C   C30       1.0  0.11162  0.98051  0.23342  1.0000
  C   C31       1.0  0.39245  0.51932  0.25276  1.0000
  C   C32       1.0  0.89231  0.01931  0.26534  1.0000
  H   H9        1.0  0.37032  0.46118  0.22959  1.0000
  H   H10       1.0  0.87041  0.95816  0.27607  1.0000
  H   H11       1.0  0.63498  0.54050  0.26112  1.0000
  H   H12       1.0  0.13422  0.03909  0.25020  1.0000
  H   H13       1.0  0.63531  0.46219  0.24457  1.0000
  H   H14       1.0  0.13371  0.96156  0.22565  1.0000
  H   H15       1.0  0.37006  0.53776  0.26133  1.0000
  H   H16       1.0  0.87065  0.03859  0.27548  1.0000
  C   C33       1.0  0.93839  0.92678  0.25924  1.0000
  C   C34       1.0  0.43956  0.42720  0.24720  1.0000
  C   C35       1.0  0.06564  0.07306  0.24305  1.0000
  C   C36       1.0  0.56570  0.57430  0.24147  1.0000
  C   C37       1.0  0.06531  0.92741  0.23976  1.0000
  C   C38       1.0  0.56698  0.42786  0.25602  1.0000
  C   C39       1.0  0.93834  0.07272  0.24893  1.0000
  C   C40       1.0  0.43841  0.57280  0.24801  1.0000
  Cu  Cu1       1.0  0.50266  0.50061  0.24658  1.0000
  Cu  Cu2       1.0  0.00188  0.00009  0.24688  1.0000
  C   C41       1.0  0.30401  0.68808  0.25596  1.0000
  H   H17       1.0  0.29463  0.65901  0.23606  1.0000
  C   C42       1.0  0.80639  0.19513  0.21651  1.0000
  H   H18       1.0  0.79722  0.17031  0.16824  1.0000
  C   C43       1.0  0.70012  0.30923  0.26373  1.0000
  H   H19       1.0  0.70915  0.33438  0.30944  1.0000
  C   C44       1.0  0.19793  0.80696  0.25892  1.0000
  H   H20       1.0  0.20731  0.83352  0.29654  1.0000
  C   C45       1.0  0.69701  0.69470  0.23794  1.0000
  H   H21       1.0  0.70659  0.66544  0.22196  1.0000
  C   C46       1.0  0.20044  0.19047  0.22527  1.0000
  H   H22       1.0  0.20922  0.16287  0.19479  1.0000
  C   C47       1.0  0.30698  0.30687  0.26184  1.0000
  H   H23       1.0  0.29841  0.33249  0.30391  1.0000
  C   C48       1.0  0.80201  0.81508  0.24235  1.0000
  H   H24       1.0  0.79281  0.84704  0.22536  1.0000
  N   N5        1.0  0.33671  0.69383  0.28091  1.0000
  N   N6        1.0  0.83806  0.19601  0.26835  1.0000
  N   N7        1.0  0.66788  0.30610  0.22469  1.0000
  N   N8        1.0  0.16561  0.80311  0.22374  1.0000
  N   N9        1.0  0.66470  0.70010  0.25956  1.0000
  N   N10       1.0  0.16863  0.19500  0.25758  1.0000
  N   N11       1.0  0.33840  0.30383  0.22408  1.0000
  N   N12       1.0  0.83422  0.80533  0.26868  1.0000
  N   N13       1.0  0.00188  0.93987  0.24849  1.0000
  N   N14       1.0  0.50312  0.44048  0.24988  1.0000
  N   N15       1.0  0.00200  0.06001  0.24930  1.0000
  N   N16       1.0  0.50215  0.56074  0.24478  1.0000
  C   C49       1.0  0.96971  0.91452  0.75510  1.0000
  C   C50       1.0  0.46947  0.41462  0.76508  1.0000
  C   C51       1.0  0.02674  0.08506  0.71280  1.0000
  C   C52       1.0  0.52719  0.58590  0.73188  1.0000
  C   C53       1.0  0.02685  0.91500  0.73923  1.0000
  C   C54       1.0  0.52684  0.41466  0.76109  1.0000
  C   C55       1.0  0.96944  0.08474  0.71892  1.0000
  C   C56       1.0  0.46985  0.58594  0.73411  1.0000
  C   C57       1.0  0.97984  0.87464  0.74001  1.0000
  C   C58       1.0  0.48077  0.37256  0.78977  1.0000
  C   C59       1.0  0.01495  0.12678  0.66092  1.0000
  C   C60       1.0  0.51580  0.62810  0.70049  1.0000
  C   C61       1.0  0.01510  0.87460  0.73365  1.0000
  C   C62       1.0  0.51602  0.37261  0.78667  1.0000
  C   C63       1.0  0.97946  0.12657  0.66336  1.0000
  C   C64       1.0  0.48046  0.62811  0.70264  1.0000
  H   H25       1.0  0.96222  0.84969  0.73805  1.0000
  H   H26       1.0  0.46377  0.34632  0.81056  1.0000
  H   H27       1.0  0.03174  0.15259  0.62461  1.0000
  H   H28       1.0  0.53275  0.65432  0.67752  1.0000
  H   H29       1.0  0.03176  0.84930  0.72763  1.0000
  H   H30       1.0  0.53334  0.34628  0.80432  1.0000
  H   H31       1.0  0.96171  0.15233  0.62885  1.0000
  H   H32       1.0  0.46295  0.65426  0.68248  1.0000
  N   N17       1.0  0.44580  0.50015  0.75304  1.0000
  N   N18       1.0  0.94701  0.99817  0.77076  1.0000
  N   N19       1.0  0.55102  0.50015  0.74981  1.0000
  N   N20       1.0  0.05101  0.99898  0.74939  1.0000
  C   C65       1.0  0.42396  0.46753  0.75156  1.0000
  C   C66       1.0  0.92604  0.96411  0.79222  1.0000
  C   C67       1.0  0.57281  0.53278  0.75245  1.0000
  C   C68       1.0  0.07245  0.03139  0.75835  1.0000
  C   C69       1.0  0.57240  0.46737  0.74644  1.0000
  C   C70       1.0  0.07264  0.96590  0.75301  1.0000
  C   C71       1.0  0.42446  0.53307  0.75513  1.0000
  C   C72       1.0  0.92655  0.03002  0.78939  1.0000
  C   C73       1.0  0.38823  0.48067  0.74963  1.0000
  C   C74       1.0  0.89232  0.97433  0.83205  1.0000
  C   C75       1.0  0.60852  0.51974  0.75442  1.0000
  C   C76       1.0  0.10810  0.01748  0.77690  1.0000
  C   C77       1.0  0.60823  0.47994  0.74465  1.0000
  C   C78       1.0  0.10838  0.97781  0.76701  1.0000
  C   C79       1.0  0.38865  0.52060  0.75808  1.0000
  C   C80       1.0  0.89300  0.01474  0.83470  1.0000
  H   H33       1.0  0.36576  0.46193  0.74410  1.0000
  H   H34       1.0  0.87108  0.95313  0.85470  1.0000
  H   H35       1.0  0.63092  0.53851  0.76160  1.0000
  H   H36       1.0  0.13009  0.03594  0.79370  1.0000
  H   H37       1.0  0.63032  0.46090  0.73840  1.0000
  H   H38       1.0  0.13089  0.95852  0.76895  1.0000
  H   H39       1.0  0.36679  0.53990  0.76492  1.0000
  H   H40       1.0  0.87286  0.03257  0.86580  1.0000
  C   C81       1.0  0.93565  0.92532  0.77681  1.0000
  C   C82       1.0  0.43437  0.42710  0.75747  1.0000
  C   C83       1.0  0.06187  0.07248  0.73728  1.0000
  C   C84       1.0  0.56230  0.57332  0.74502  1.0000
  C   C85       1.0  0.06192  0.92678  0.74172  1.0000
  C   C86       1.0  0.56173  0.42714  0.75071  1.0000
  C   C87       1.0  0.93564  0.07164  0.75541  1.0000
  C   C88       1.0  0.43511  0.57338  0.74764  1.0000
  Cu  Cu3       1.0  0.49839  0.50008  0.75200  1.0000
  Cu  Cu4       1.0  0.99895  0.99875  0.75393  1.0000
  C   C89       1.0  0.30122  0.68966  0.74829  1.0000
  H   H41       1.0  0.29180  0.66146  0.72152  1.0000
  C   C90       1.0  0.79999  0.18850  0.75145  1.0000
  H   H42       1.0  0.78912  0.15943  0.73713  1.0000
  C   C91       1.0  0.69609  0.31068  0.75140  1.0000
  H   H43       1.0  0.70569  0.33872  0.77883  1.0000
  C   C92       1.0  0.19578  0.80843  0.76147  1.0000
  H   H44       1.0  0.20457  0.83418  0.80485  1.0000
  C   C93       1.0  0.69472  0.69235  0.75190  1.0000
  H   H45       1.0  0.70460  0.66276  0.73951  1.0000
  C   C94       1.0  0.19558  0.18982  0.74550  1.0000
  H   H46       1.0  0.20510  0.16254  0.71508  1.0000
  C   C95       1.0  0.30051  0.30777  0.78263  1.0000
  H   H47       1.0  0.29203  0.33332  0.82518  1.0000
  C   C96       1.0  0.80042  0.81230  0.75645  1.0000
  H   H48       1.0  0.79120  0.84388  0.74759  1.0000
  N   N21       1.0  0.33379  0.69497  0.77617  1.0000
  N   N22       1.0  0.83302  0.19356  0.76806  1.0000
  N   N23       1.0  0.66352  0.30560  0.72348  1.0000
  N   N24       1.0  0.16394  0.80551  0.71780  1.0000
  N   N25       1.0  0.66216  0.69819  0.76756  1.0000
  N   N26       1.0  0.16330  0.19431  0.77126  1.0000
  N   N27       1.0  0.33161  0.30511  0.74091  1.0000
  N   N28       1.0  0.83295  0.80289  0.77415  1.0000
  N   N29       1.0  0.99864  0.93905  0.75165  1.0000
  N   N30       1.0  0.49806  0.43992  0.75243  1.0000
  N   N31       1.0  0.99858  0.05955  0.74044  1.0000
  N   N32       1.0  0.49864  0.56055  0.74658  1.0000
  C  Sn1       1.0  0.21867  0.72766  0.24255  1.0000
  C   C97       1.0  0.22193  0.76541  0.27726  1.0000
  C  Sn2       1.0  0.25467  0.78248  0.28875  1.0000
  C  Sn3       1.0  0.28478  0.76139  0.26497  1.0000
  C   C98       1.0  0.28151  0.72367  0.23026  1.0000
  C  Sn4       1.0  0.24878  0.70657  0.21877  1.0000
  O  Te1       1.0  0.18569  0.71117  0.23163  1.0000
  O  Te2       1.0  0.25728  0.82026  0.32362  1.0000
  O  Te3       1.0  0.31778  0.77792  0.27592  1.0000
  O  Te4       1.0  0.24617  0.66882  0.18390  1.0000
  Mg  Mg1       1.0  0.30793  0.83017  0.32594  1.0000
  Mg  Mg2       1.0  0.19553  0.65889  0.18148  1.0000
  C  Sn5       1.0  0.74230  0.23521  0.12393  1.0000
  C   C99       1.0  0.77640  0.23276  0.18053  1.0000
  C  Sn6       1.0  0.78565  0.25263  0.28578  1.0000
  C  Sn7       1.0  0.76028  0.27540  0.33557  1.0000
  C   C100      1.0  0.72621  0.27783  0.27900  1.0000
  C  Sn8       1.0  0.71693  0.25798  0.17372  1.0000
  O  Te5       1.0  0.73364  0.21510  0.01879  1.0000
  O  Te6       1.0  0.81991  0.24975  0.34071  1.0000
  O  Te7       1.0  0.76898  0.29551  0.44079  1.0000
  O  Te8       1.0  0.68270  0.26084  0.11882  1.0000
  Mg  Mg3       1.0  0.81902  0.28249  0.48251  1.0000
  Mg  Mg4       1.0  0.69584  0.15788  0.97707  1.0000
  C  Sn9       1.0  0.71682  0.77754  0.20346  1.0000
  C   C101      1.0  0.72116  0.73653  0.20073  1.0000
  C  Sn10      1.0  0.75394  0.71783  0.22824  1.0000
  C  Sn11      1.0  0.78299  0.74058  0.25920  1.0000
  C   C102      1.0  0.77864  0.78156  0.26195  1.0000
  C  Sn12      1.0  0.74587  0.80029  0.23443  1.0000
  O  Te9       1.0  0.68381  0.79561  0.17564  1.0000
  O  Te10      1.0  0.75764  0.67680  0.22485  1.0000
  O  Te11      1.0  0.81602  0.72247  0.28703  1.0000
  O  Te12      1.0  0.74217  0.84129  0.23782  1.0000
  Mg  Mg5       1.0  0.80787  0.66578  0.27001  1.0000
  Mg  Mg6       1.0  0.69195  0.85233  0.19276  1.0000
  C  Sn13      1.0  0.27933  0.24340  0.14563  1.0000
  C   C103      1.0  0.27784  0.27728  0.20389  1.0000
  C  Sn14      1.0  0.25113  0.28123  0.29071  1.0000
  C  Sn15      1.0  0.22538  0.25067  0.31999  1.0000
  C   C104      1.0  0.22687  0.21680  0.26178  1.0000
  C  Sn16      1.0  0.25358  0.21283  0.17492  1.0000
  O  Te13      1.0  0.30627  0.24007  0.05914  1.0000
  O  Te14      1.0  0.25018  0.31539  0.34770  1.0000
  O  Te15      1.0  0.19842  0.25402  0.40657  1.0000
  O  Te16      1.0  0.25453  0.17869  0.11797  1.0000
  Mg  Mg7       1.0  0.20833  0.30616  0.45939  1.0000
  Mg  Mg8       1.0  0.29638  0.18789  0.00633  1.0000
  C  Sn17      1.0  0.35862  0.37541  0.30794  1.0000
  C   C105      1.0  0.35727  0.34656  0.22694  1.0000
  C  Sn18      1.0  0.38656  0.33850  0.15938  1.0000
  C  Sn19      1.0  0.41786  0.35970  0.17313  1.0000
  C   C106      1.0  0.41919  0.38852  0.25410  1.0000
  C  Sn20      1.0  0.38991  0.39660  0.32168  1.0000
  O  Te17      1.0  0.32902  0.38297  0.37455  1.0000
  O  Te18      1.0  0.38458  0.30954  0.07894  1.0000
  O  Te19      1.0  0.44746  0.35211  0.10642  1.0000
  O  Te20      1.0  0.39188  0.42554  0.40210  1.0000
  Mg  Mg9       1.0  0.43186  0.30990  0.00849  1.0000
  Mg  Mg10      1.0  0.34463  0.42519  0.47265  1.0000
  C  Sn21      1.0  0.87090  0.87248  0.12570  1.0000
  C   C107      1.0  0.86486  0.83736  0.23006  1.0000
  C  Sn22      1.0  0.88021  0.83260  0.36415  1.0000
  C  Sn23      1.0  0.90203  0.86360  0.39461  1.0000
  C   C108      1.0  0.90805  0.89869  0.29029  1.0000
  C  Sn24      1.0  0.89272  0.90348  0.15615  1.0000
  O  Te21      1.0  0.86757  0.80638  0.99238  1.0000
  O  Te22      1.0  0.87379  0.79722  0.46675  1.0000
  O  Te23      1.0  0.91765  0.85945  0.52806  1.0000
  O  Te24      1.0  0.89912  0.93884  0.05360  1.0000
  Mg  Mg11      1.0  0.90098  0.80572  0.63257  1.0000
  Mg  Mg12      1.0  0.88422  0.86016  0.88777  1.0000
  C  Sn25      1.0  0.63444  0.64361  0.12327  1.0000
  C   C109      1.0  0.63634  0.67048  0.21145  1.0000
  C  Sn26      1.0  0.61742  0.66302  0.33199  1.0000
  C  Sn27      1.0  0.59617  0.62795  0.36515  1.0000
  C   C110      1.0  0.59428  0.60110  0.27701  1.0000
  C  Sn28      1.0  0.61319  0.60854  0.15642  1.0000
  O  Te25      1.0  0.65359  0.65167  0.00331  1.0000
  O  Te26      1.0  0.61973  0.69034  0.41851  1.0000
  O  Te27      1.0  0.57702  0.61991  0.48521  1.0000
  O  Te28      1.0  0.61090  0.58124  0.06995  1.0000
  Mg  Mg13      1.0  0.58873  0.66613  0.57019  1.0000
  Mg  Mg14      1.0  0.65418  0.53519  0.91829  1.0000
  C  Sn29      1.0  0.13406  0.14253  0.11428  1.0000
  C   C111      1.0  0.13851  0.16756  0.20793  1.0000
  C  Sn30      1.0  0.12132  0.15898  0.33285  1.0000
  C  Sn31      1.0  0.09922  0.12464  0.36489  1.0000
  C   C112      1.0  0.09478  0.09962  0.27128  1.0000
  C  Sn32      1.0  0.11196  0.10818  0.14632  1.0000
  O  Te29      1.0  0.16379  0.08147  0.99001  1.0000
  O  Te30      1.0  0.12618  0.18447  0.42481  1.0000
  O  Te31      1.0  0.08177  0.11550  0.48928  1.0000
  O  Te32      1.0  0.10712  0.08272  0.05440  1.0000
  Mg  Mg15      1.0  0.09676  0.15931  0.58096  1.0000
  Mg  Mg16      1.0  0.14881  0.03761  0.89827  1.0000
  C  Sn33      1.0  0.63513  0.39165  0.32462  1.0000
  C   C113      1.0  0.60451  0.40197  0.24178  1.0000
  C  Sn34      1.0  0.59075  0.37545  0.16431  1.0000
  C  Sn35      1.0  0.60794  0.33781  0.16980  1.0000
  C   C114      1.0  0.63853  0.32750  0.25262  1.0000
  C  Sn36      1.0  0.65232  0.35400  0.33011  1.0000
  O  Te33      1.0  0.64842  0.41863  0.40120  1.0000
  O  Te34      1.0  0.56011  0.38644  0.08221  1.0000
  O  Te35      1.0  0.59462  0.31083  0.09312  1.0000
  O  Te36      1.0  0.68293  0.34302  0.41219  1.0000
  Mg  Mg17      1.0  0.56449  0.26924  0.99682  1.0000
  Mg  Mg18      1.0  0.69085  0.38997  0.49768  1.0000
  C  Sn37      1.0  0.13355  0.89212  0.30539  1.0000
  C   C115      1.0  0.10223  0.90072  0.22617  1.0000
  C  Sn38      1.0  0.08812  0.87244  0.15660  1.0000
  C  Sn39      1.0  0.10568  0.83475  0.16647  1.0000
  C   C116      1.0  0.13697  0.82616  0.24566  1.0000
  C  Sn40      1.0  0.15110  0.85444  0.31526  1.0000
  O  Te37      1.0  0.14717  0.92085  0.37407  1.0000
  O  Te38      1.0  0.05678  0.88173  0.07800  1.0000
  O  Te39      1.0  0.09203  0.80602  0.09770  1.0000
  O  Te40      1.0  0.18242  0.84516  0.39384  1.0000
  Mg  Mg19      1.0  0.04865  0.83272  0.00353  1.0000
  Mg  Mg20      1.0  0.19057  0.89414  0.46840  1.0000
  C  Sn41      1.0  0.40339  0.66171  0.33274  1.0000
  C   C117      1.0  0.37238  0.67143  0.25206  1.0000
  C  Sn42      1.0  0.35851  0.64450  0.17643  1.0000
  C  Sn43      1.0  0.37598  0.60705  0.18161  1.0000
  C   C118      1.0  0.40696  0.59734  0.26227  1.0000
  C  Sn44      1.0  0.42086  0.62426  0.33792  1.0000
  O  Te41      1.0  0.41679  0.68909  0.40752  1.0000
  O  Te42      1.0  0.32748  0.65490  0.09647  1.0000
  O  Te43      1.0  0.36255  0.57966  0.10674  1.0000
  O  Te44      1.0  0.45186  0.61387  0.41786  1.0000
  Mg  Mg21      1.0  0.31957  0.60753  0.01302  1.0000
  Mg  Mg22      1.0  0.45979  0.66121  0.50141  1.0000
  C  Sn45      1.0  0.90155  0.15851  0.34617  1.0000
  C   C119      1.0  0.87306  0.17142  0.25295  1.0000
  C  Sn46      1.0  0.86126  0.14757  0.16258  1.0000
  C  Sn47      1.0  0.87829  0.11001  0.16549  1.0000
  C   C120      1.0  0.90677  0.09711  0.25867  1.0000
  C  Sn48      1.0  0.91858  0.12095  0.34907  1.0000
  O  Te45      1.0  0.91289  0.18284  0.43557  1.0000
  O  Te46      1.0  0.83273  0.16112  0.07029  1.0000
  O  Te47      1.0  0.86693  0.08567  0.07598  1.0000
  O  Te48      1.0  0.94709  0.10741  0.44134  1.0000
  Mg  Mg23      1.0  0.83927  0.04698  0.96909  1.0000
  Mg  Mg24      1.0  0.95285  0.15129  0.54263  1.0000
  C  Sn49      1.0  0.23555  0.72515  0.66132  1.0000
  C   C121      1.0  0.27031  0.72497  0.70893  1.0000
  C  Sn50      1.0  0.28130  0.75085  0.79358  1.0000
  C  Sn51      1.0  0.25702  0.77745  0.83153  1.0000
  C   C122      1.0  0.22229  0.77761  0.78396  1.0000
  C  Sn52      1.0  0.21128  0.75175  0.69927  1.0000
  O  Te49      1.0  0.22515  0.69902  0.57680  1.0000
  O  Te50      1.0  0.31619  0.75014  0.83985  1.0000
  O  Te51      1.0  0.26746  0.80359  0.91612  1.0000
  O  Te52      1.0  0.17641  0.75245  0.65304  1.0000
  Mg  Mg25      1.0  0.31776  0.79142  0.95298  1.0000
  Mg  Mg26      1.0  0.17481  0.71117  0.53997  1.0000
  C  Sn53      1.0  0.73298  0.22157  0.68028  1.0000
  C   C123      1.0  0.76868  0.22382  0.70945  1.0000
  C  Sn54      1.0  0.78186  0.25397  0.77270  1.0000
  C  Sn55      1.0  0.75887  0.28247  0.80760  1.0000
  C   C124      1.0  0.72320  0.28021  0.77845  1.0000
  C  Sn56      1.0  0.71000  0.25007  0.71518  1.0000
  O  Te53      1.0  0.72039  0.19117  0.61701  1.0000
  O  Te54      1.0  0.81765  0.25561  0.80079  1.0000
  O  Te55      1.0  0.77151  0.31289  0.87092  1.0000
  O  Te56      1.0  0.67423  0.24841  0.68711  1.0000
  Mg  Mg27      1.0  0.82229  0.30261  0.88826  1.0000
  Mg  Mg28      1.0  0.66956  0.20143  0.59972  1.0000
  C  Sn57      1.0  0.71518  0.77523  0.71671  1.0000
  C   C125      1.0  0.71926  0.73405  0.71576  1.0000
  C  Sn58      1.0  0.75184  0.71495  0.74599  1.0000
  C  Sn59      1.0  0.78095  0.73746  0.77793  1.0000
  C   C126      1.0  0.77686  0.77860  0.77890  1.0000
  C  Sn60      1.0  0.74429  0.79774  0.74865  1.0000
  O  Te57      1.0  0.68237  0.79371  0.68618  1.0000
  O  Te58      1.0  0.75528  0.67375  0.74433  1.0000
  O  Te59      1.0  0.81378  0.71894  0.80846  1.0000
  O  Te60      1.0  0.74085  0.83890  0.75032  1.0000
  Mg  Mg29      1.0  0.80530  0.66217  0.79301  1.0000
  Mg  Mg30      1.0  0.69083  0.85051  0.70173  1.0000
  C  Sn61      1.0  0.23738  0.26967  0.86541  1.0000
  C   C127      1.0  0.27103  0.27101  0.81769  1.0000
  C  Sn62      1.0  0.27978  0.24834  0.72261  1.0000
  C  Sn63      1.0  0.25437  0.22383  0.67414  1.0000
  C   C128      1.0  0.22075  0.22251  0.72183  1.0000
  C  Sn64      1.0  0.21197  0.24517  0.81694  1.0000
  O  Te61      1.0  0.22921  0.29259  0.96046  1.0000
  O  Te62      1.0  0.31359  0.25015  0.67644  1.0000
  O  Te63      1.0  0.26257  0.20091  0.57902  1.0000
  O  Te64      1.0  0.17819  0.24336  0.86309  1.0000
  Mg  Mg31      1.0  0.31212  0.21345  0.54677  1.0000
  Mg  Mg32      1.0  0.17962  0.28007  0.99269  1.0000
  C  Sn65      1.0  0.39941  0.36948  0.63057  1.0000
  C   C129      1.0  0.40204  0.39738  0.71495  1.0000
  C  Sn66      1.0  0.38326  0.39156  0.83560  1.0000
  C  Sn67      1.0  0.36142  0.35713  0.87274  1.0000
  C   C130      1.0  0.35881  0.32926  0.78840  1.0000
  C  Sn68      1.0  0.37757  0.33505  0.66771  1.0000
  O  Te65      1.0  0.41841  0.37589  0.51044  1.0000
  O  Te66      1.0  0.38631  0.41988  0.91827  1.0000
  O  Te67      1.0  0.34241  0.35074  0.99298  1.0000
  O  Te68      1.0  0.37454  0.30675  0.58508  1.0000
  Mg  Mg33      1.0  0.34293  0.46805  0.07185  1.0000
  Mg  Mg34      1.0  0.40562  0.32876  0.43152  1.0000
  C  Sn69      1.0  0.86606  0.87459  0.64083  1.0000
  C   C131      1.0  0.86254  0.83669  0.73485  1.0000
  C  Sn70      1.0  0.88056  0.82811  0.86490  1.0000
  C  Sn71      1.0  0.90255  0.85805  0.90180  1.0000
  C   C132      1.0  0.90605  0.89593  0.80782  1.0000
  C  Sn72      1.0  0.88804  0.90453  0.67772  1.0000
  O  Te69      1.0  0.84779  0.88251  0.51139  1.0000
  O  Te70      1.0  0.87664  0.79000  0.95713  1.0000
  O  Te71      1.0  0.90853  0.92032  0.03136  1.0000
  O  Te72      1.0  0.89195  0.94262  0.58554  1.0000
  Mg  Mg35      1.0  0.89466  0.86392  0.12127  1.0000
  Mg  Mg36      1.0  0.86165  0.93896  0.42141  1.0000
  C  Sn73      1.0  0.58328  0.64700  0.81511  1.0000
  C   C133      1.0  0.58369  0.61710  0.73843  1.0000
  C  Sn74      1.0  0.61368  0.60996  0.67341  1.0000
  C  Sn75      1.0  0.64391  0.63317  0.68535  1.0000
  C   C134      1.0  0.64350  0.66305  0.76201  1.0000
  C  Sn76      1.0  0.61350  0.67021  0.82705  1.0000
  O  Te73      1.0  0.55300  0.65362  0.87925  1.0000
  O  Te74      1.0  0.61346  0.57991  0.59727  1.0000
  O  Te75      1.0  0.67420  0.62653  0.62112  1.0000
  O  Te76      1.0  0.61372  0.70024  0.90317  1.0000
  Mg  Mg37      1.0  0.66107  0.58221  0.52889  1.0000
  Mg  Mg38      1.0  0.56614  0.69795  0.97165  1.0000
  C  Sn77      1.0  0.10613  0.15096  0.86135  1.0000
  C   C135      1.0  0.13673  0.15843  0.78937  1.0000
  C  Sn78      1.0  0.14205  0.14110  0.67676  1.0000
  C  Sn79      1.0  0.11624  0.11579  0.63514  1.0000
  C   C136      1.0  0.08566  0.10834  0.70708  1.0000
  C  Sn80      1.0  0.08032  0.12565  0.81974  1.0000
  O  Te77      1.0  0.10136  0.16860  0.97362  1.0000
  O  Te78      1.0  0.17286  0.14901  0.60644  1.0000
  O  Te79      1.0  0.12103  0.09815  0.52277  1.0000
  O  Te80      1.0  0.04953  0.11776  0.89001  1.0000
  Mg  Mg39      1.0  0.16731  0.11800  0.45996  1.0000
  Mg  Mg40      1.0  0.04276  0.21898  0.03646  1.0000
  C  Sn81      1.0  0.63415  0.35878  0.86879  1.0000
  C   C137      1.0  0.63485  0.33272  0.77801  1.0000
  C  Sn82      1.0  0.61320  0.34033  0.65678  1.0000
  C  Sn83      1.0  0.59039  0.37472  0.62559  1.0000
  C   C138      1.0  0.58971  0.40076  0.71633  1.0000
  C  Sn84      1.0  0.61135  0.39317  0.83760  1.0000
  O  Te81      1.0  0.65602  0.35059  0.98938  1.0000
  O  Te82      1.0  0.61435  0.31382  0.56764  1.0000
  O  Te83      1.0  0.56851  0.38289  0.50488  1.0000
  O  Te84      1.0  0.61021  0.41965  0.92669  1.0000
  Mg  Mg41      1.0  0.57957  0.33790  0.41607  1.0000
  Mg  Mg42      1.0  0.63270  0.46584  0.07824  1.0000
  C  Sn85      1.0  0.12883  0.88985  0.81895  1.0000
  C   C139      1.0  0.09905  0.90071  0.73122  1.0000
  C  Sn86      1.0  0.08707  0.87554  0.64562  1.0000
  C  Sn87      1.0  0.10521  0.83872  0.64781  1.0000
  C   C140      1.0  0.13496  0.82787  0.73552  1.0000
  C  Sn88      1.0  0.14697  0.85304  0.82114  1.0000
  O  Te85      1.0  0.14033  0.91549  0.90365  1.0000
  O  Te86      1.0  0.05725  0.88705  0.55875  1.0000
  O  Te87      1.0  0.09368  0.81308  0.56301  1.0000
  O  Te88      1.0  0.17676  0.84154  0.90799  1.0000
  Mg  Mg43      1.0  0.05179  0.84195  0.46265  1.0000
  Mg  Mg44      1.0  0.16995  0.95682  0.00418  1.0000
  C  Sn89      1.0  0.40062  0.66311  0.82772  1.0000
  C   C141      1.0  0.36982  0.67299  0.74580  1.0000
  C  Sn90      1.0  0.35600  0.64604  0.67009  1.0000
  C  Sn91      1.0  0.37331  0.60842  0.67647  1.0000
  C   C142      1.0  0.40410  0.59856  0.75837  1.0000
  C  Sn92      1.0  0.41794  0.62549  0.83410  1.0000
  O  Te89      1.0  0.41397  0.69050  0.90254  1.0000
  O  Te90      1.0  0.32517  0.65660  0.58888  1.0000
  O  Te91      1.0  0.35994  0.58102  0.60156  1.0000
  O  Te92      1.0  0.44874  0.61495  0.91528  1.0000
  Mg  Mg45      1.0  0.31725  0.60914  0.50589  1.0000
  Mg  Mg46      1.0  0.45668  0.66237  0.99837  1.0000
  C  Sn93      1.0  0.85012  0.11532  0.72777  1.0000
  C   C143      1.0  0.85266  0.14933  0.78553  1.0000
  C  Sn94      1.0  0.88516  0.16328  0.82147  1.0000
  C  Sn95      1.0  0.91576  0.14282  0.79913  1.0000
  C   C144      1.0  0.91321  0.10884  0.74138  1.0000
  C  Sn96      1.0  0.88072  0.09487  0.70543  1.0000
  O  Te93      1.0  0.81735  0.10192  0.69261  1.0000
  O  Te94      1.0  0.88704  0.19733  0.87911  1.0000
  O  Te95      1.0  0.94854  0.15626  0.83435  1.0000
  O  Te96      1.0  0.87883  0.06084  0.64780  1.0000
  Mg  Mg47      1.0  0.93765  0.20399  0.90982  1.0000
  Mg  Mg48      1.0  0.82824  0.05417  0.61699  1.0000
