data_image0
_chemical_formula_structural       C40H8N4C16H8C8F8Cu2CHCHCHCHCHCHCHCHF8N12C40H8N4C16H8C8F8Cu2CHCHCHCHCHCHCHCHF8N12SnCSn2CSnTe4Mg2SnCSn2CSnTe4Mg2SnCSn2CSnTe4Mg2SnCSn2CSnTe4Mg2SnCSn2CSnTe4Mg2SnCSn2CSnTe4Mg2SnCSn2CSnTe4Mg2SnCSn2CSnTe4Mg2SnCSn2CSnTe4Mg2SnCSn2CSnTe4Mg2SnCSn2CSnTe4Mg2SnCSn2CSnTe4Mg2SnCSn2CSnTe4Mg2SnCSn2CSnTe4Mg2SnCSn2CSnTe4Mg2SnCSn2CSnTe4Mg2
_chemical_formula_sum              "C176 H48 N32 F32 Cu4 Sn64 Te64 Mg32"
_cell_length_a       38.6488
_cell_length_b       33.7116
_cell_length_c       13.031
_cell_angle_alpha    89.6816
_cell_angle_beta     90.0322
_cell_angle_gamma    90.0394

_symmetry_space_group_name_H-M    'P1'
_space_group_IT_number       1

loop_
  _space_group_symop_operation_xyz
  'x, y, z'

loop_
  _atom_site_type_symbol
  _atom_site_label
  _atom_site_symmetry_multiplicity
  _atom_site_fract_x
  _atom_site_fract_y
  _atom_site_fract_z
  _atom_site_occupancy
  C   C1        1.0  0.27477  0.71835  0.25680  1.0000
  C   C2        1.0  0.77794  0.22276  0.23619  1.0000
  C   C3        1.0  0.72277  0.27944  0.25575  1.0000
  C   C4        1.0  0.22213  0.77833  0.24597  1.0000
  C   C5        1.0  0.72493  0.72147  0.24685  1.0000
  C   C6        1.0  0.22634  0.22064  0.25294  1.0000
  C   C7        1.0  0.27942  0.28023  0.26708  1.0000
  C   C8        1.0  0.77712  0.78245  0.23468  1.0000
  C   C9        1.0  0.21362  0.73781  0.25173  1.0000
  C   C10       1.0  0.71605  0.23892  0.23831  1.0000
  C   C11       1.0  0.78486  0.26337  0.25315  1.0000
  C   C12       1.0  0.28323  0.75889  0.24866  1.0000
  C   C13       1.0  0.78593  0.74184  0.23380  1.0000
  C   C14       1.0  0.28770  0.23960  0.26316  1.0000
  C   C15       1.0  0.21826  0.26132  0.25681  1.0000
  C   C16       1.0  0.71645  0.76202  0.25273  1.0000
  C   C17       1.0  0.23928  0.70900  0.25629  1.0000
  C   C18       1.0  0.74288  0.21163  0.23108  1.0000
  C   C19       1.0  0.75786  0.29044  0.26435  1.0000
  C   C20       1.0  0.25752  0.78756  0.24267  1.0000
  C   C21       1.0  0.76040  0.71272  0.23652  1.0000
  C   C22       1.0  0.26176  0.21104  0.25702  1.0000
  C   C23       1.0  0.24407  0.29000  0.26527  1.0000
  C   C24       1.0  0.74164  0.79121  0.24169  1.0000
  C   C25       1.0  0.97320  0.91469  0.24565  1.0000
  C   C26       1.0  0.47391  0.41576  0.25812  1.0000
  C   C27       1.0  0.02865  0.08491  0.23928  1.0000
  C   C28       1.0  0.52876  0.58664  0.24166  1.0000
  C   C29       1.0  0.03025  0.91552  0.25041  1.0000
  C   C30       1.0  0.53091  0.41702  0.26324  1.0000
  C   C31       1.0  0.97130  0.08404  0.23421  1.0000
  C   C32       1.0  0.47157  0.58571  0.24878  1.0000
  C   C33       1.0  0.98455  0.87386  0.24138  1.0000
  C   C34       1.0  0.48543  0.37493  0.26157  1.0000
  C   C35       1.0  0.01725  0.12570  0.23436  1.0000
  C   C36       1.0  0.51727  0.62743  0.23881  1.0000
  C   C37       1.0  0.01987  0.87440  0.24359  1.0000
  C   C38       1.0  0.52074  0.37575  0.26602  1.0000
  C   C39       1.0  0.98189  0.12517  0.23255  1.0000
  C   C40       1.0  0.48195  0.62687  0.24315  1.0000
  H   H1        1.0  0.96763  0.84835  0.23504  1.0000
  H   H2        1.0  0.46854  0.34928  0.26060  1.0000
  H   H3        1.0  0.03428  0.15124  0.23424  1.0000
  H   H4        1.0  0.53413  0.65302  0.23375  1.0000
  H   H5        1.0  0.03742  0.84941  0.23983  1.0000
  H   H6        1.0  0.53862  0.35105  0.27033  1.0000
  H   H7        1.0  0.96428  0.15014  0.23063  1.0000
  H   H8        1.0  0.46437  0.65188  0.24276  1.0000
  N   N1        1.0  0.44933  0.50039  0.25654  1.0000
  N   N2        1.0  0.94836  0.99908  0.23635  1.0000
  N   N3        1.0  0.55333  0.50206  0.24577  1.0000
  N   N4        1.0  0.05269  0.00047  0.26072  1.0000
  C   C41       1.0  0.42834  0.46717  0.25886  1.0000
  C   C42       1.0  0.92737  0.96589  0.23345  1.0000
  C   C43       1.0  0.57437  0.53522  0.24232  1.0000
  C   C44       1.0  0.07380  0.03356  0.26196  1.0000
  C   C45       1.0  0.57526  0.46976  0.25271  1.0000
  C   C46       1.0  0.07454  0.96806  0.26630  1.0000
  C   C47       1.0  0.42737  0.53278  0.25885  1.0000
  C   C48       1.0  0.92650  0.03154  0.23214  1.0000
  C   C49       1.0  0.39250  0.47899  0.26436  1.0000
  C   C50       1.0  0.89155  0.97778  0.22523  1.0000
  C   C51       1.0  0.61024  0.52337  0.24695  1.0000
  C   C52       1.0  0.10958  0.02165  0.27149  1.0000
  C   C53       1.0  0.61081  0.48293  0.25332  1.0000
  C   C54       1.0  0.11004  0.98117  0.27405  1.0000
  C   C55       1.0  0.39187  0.51949  0.26455  1.0000
  C   C56       1.0  0.89102  0.01830  0.22422  1.0000
  H   H9        1.0  0.37107  0.45839  0.26880  1.0000
  H   H10       1.0  0.86983  0.95758  0.22025  1.0000
  H   H11       1.0  0.63186  0.54376  0.24691  1.0000
  H   H12       1.0  0.13129  0.04194  0.27405  1.0000
  H   H13       1.0  0.63298  0.46349  0.26022  1.0000
  H   H14       1.0  0.13230  0.96179  0.27993  1.0000
  H   H15       1.0  0.36965  0.53898  0.26771  1.0000
  H   H16       1.0  0.86870  0.03751  0.21745  1.0000
  C   C57       1.0  0.93851  0.92637  0.24019  1.0000
  C   C58       1.0  0.43922  0.42755  0.25554  1.0000
  C   C59       1.0  0.06326  0.07313  0.25089  1.0000
  C   C60       1.0  0.56351  0.57486  0.23930  1.0000
  C   C61       1.0  0.06462  0.92825  0.25870  1.0000
  C   C62       1.0  0.56527  0.42995  0.25958  1.0000
  C   C63       1.0  0.93664  0.07147  0.23452  1.0000
  C   C64       1.0  0.43714  0.57278  0.25419  1.0000
  F   F1        1.0  0.18051  0.72597  0.25243  1.0000
  F   F2        1.0  0.68369  0.22454  0.23197  1.0000
  F   F3        1.0  0.81753  0.27714  0.25795  1.0000
  F   F4        1.0  0.31613  0.77168  0.24777  1.0000
  F   F5        1.0  0.81915  0.73007  0.22721  1.0000
  F   F6        1.0  0.32086  0.22775  0.26784  1.0000
  F   F7        1.0  0.18547  0.27385  0.24778  1.0000
  F   F8        1.0  0.68368  0.77383  0.26717  1.0000
  Cu  Cu1       1.0  0.50132  0.50128  0.25236  1.0000
  Cu  Cu2       1.0  0.00061  0.99984  0.24682  1.0000
  C   C65       1.0  0.30053  0.68661  0.26535  1.0000
  H   H17       1.0  0.29119  0.65831  0.29703  1.0000
  C   C66       1.0  0.80409  0.19152  0.22563  1.0000
  H   H18       1.0  0.79444  0.16369  0.19292  1.0000
  C   C67       1.0  0.69612  0.31020  0.26538  1.0000
  H   H19       1.0  0.70370  0.33647  0.30970  1.0000
  C   C68       1.0  0.19681  0.81041  0.24556  1.0000
  H   H20       1.0  0.20747  0.84055  0.24684  1.0000
  C   C69       1.0  0.69929  0.68947  0.24574  1.0000
  H   H21       1.0  0.70848  0.66105  0.21553  1.0000
  C   C70       1.0  0.20054  0.18868  0.24257  1.0000
  H   H22       1.0  0.21029  0.16104  0.20912  1.0000
  C   C71       1.0  0.30572  0.31142  0.27038  1.0000
  H   H23       1.0  0.29671  0.34092  0.29307  1.0000
  C   C72       1.0  0.80306  0.81415  0.23040  1.0000
  H   H24       1.0  0.79508  0.84293  0.19783  1.0000
  F   F9        1.0  0.22923  0.67052  0.25835  1.0000
  F   F10       1.0  0.73439  0.17271  0.22199  1.0000
  F   F11       1.0  0.76565  0.32908  0.28264  1.0000
  F   F12       1.0  0.26745  0.82586  0.23310  1.0000
  F   F13       1.0  0.77074  0.67441  0.23220  1.0000
  F   F14       1.0  0.27096  0.17236  0.25690  1.0000
  F   F15       1.0  0.23446  0.32872  0.26787  1.0000
  F   F16       1.0  0.73101  0.82948  0.24247  1.0000
  N   N5        1.0  0.33171  0.69190  0.23420  1.0000
  N   N6        1.0  0.83552  0.19569  0.25553  1.0000
  N   N7        1.0  0.66650  0.30738  0.22057  1.0000
  N   N8        1.0  0.16410  0.80368  0.24368  1.0000
  N   N9        1.0  0.66813  0.69420  0.27849  1.0000
  N   N10       1.0  0.16925  0.19243  0.27451  1.0000
  N   N11       1.0  0.33716  0.30468  0.24341  1.0000
  N   N12       1.0  0.83360  0.80788  0.26672  1.0000
  N   N13       1.0  0.00141  0.93973  0.25070  1.0000
  N   N14       1.0  0.50203  0.44103  0.26037  1.0000
  N   N15       1.0  0.00021  0.05983  0.23702  1.0000
  N   N16       1.0  0.50050  0.56157  0.24803  1.0000
  C   C73       1.0  0.27309  0.71717  0.76051  1.0000
  C   C74       1.0  0.77748  0.22060  0.75620  1.0000
  C   C75       1.0  0.72533  0.28172  0.74227  1.0000
  C   C76       1.0  0.22227  0.77908  0.76961  1.0000
  C   C77       1.0  0.72177  0.72059  0.74653  1.0000
  C   C78       1.0  0.22088  0.22313  0.73332  1.0000
  C   C79       1.0  0.27454  0.28195  0.73706  1.0000
  C   C80       1.0  0.77477  0.78089  0.75193  1.0000
  C   C81       1.0  0.21253  0.73872  0.77201  1.0000
  C   C82       1.0  0.71655  0.24128  0.75170  1.0000
  C   C83       1.0  0.78633  0.26123  0.75242  1.0000
  C   C84       1.0  0.28271  0.75740  0.75791  1.0000
  C   C85       1.0  0.78303  0.74023  0.74654  1.0000
  C   C86       1.0  0.28236  0.24127  0.72967  1.0000
  C   C87       1.0  0.21313  0.26379  0.74130  1.0000
  C   C88       1.0  0.71349  0.76132  0.75408  1.0000
  C   C89       1.0  0.23749  0.70897  0.76736  1.0000
  C   C90       1.0  0.74183  0.21194  0.75503  1.0000
  C   C91       1.0  0.76099  0.29030  0.74193  1.0000
  C   C92       1.0  0.25794  0.78728  0.76275  1.0000
  C   C93       1.0  0.75730  0.71134  0.74278  1.0000
  C   C94       1.0  0.25611  0.21310  0.72692  1.0000
  C   C95       1.0  0.23928  0.29219  0.74139  1.0000
  C   C96       1.0  0.73925  0.79028  0.75412  1.0000
  C   C97       1.0  0.96988  0.91550  0.75237  1.0000
  C   C98       1.0  0.47053  0.41559  0.74769  1.0000
  C   C99       1.0  0.03005  0.08370  0.74959  1.0000
  C   C100      1.0  0.52684  0.58398  0.75244  1.0000
  C   C101      1.0  0.02697  0.91474  0.75215  1.0000
  C   C102      1.0  0.52764  0.41521  0.73641  1.0000
  C   C103      1.0  0.97294  0.08490  0.75456  1.0000
  C   C104      1.0  0.46971  0.58408  0.74174  1.0000
  C   C105      1.0  0.98040  0.87436  0.75545  1.0000
  C   C106      1.0  0.48120  0.37456  0.74681  1.0000
  C   C107      1.0  0.01990  0.12485  0.75621  1.0000
  C   C108      1.0  0.51593  0.62494  0.75180  1.0000
  C   C109      1.0  0.01571  0.87390  0.75535  1.0000
  C   C110      1.0  0.51646  0.37432  0.73965  1.0000
  C   C111      1.0  0.98459  0.12563  0.75908  1.0000
  C   C112      1.0  0.48066  0.62502  0.74441  1.0000
  H   H25       1.0  0.96297  0.84924  0.75628  1.0000
  H   H26       1.0  0.46352  0.34966  0.75139  1.0000
  H   H27       1.0  0.03759  0.14978  0.75693  1.0000
  H   H28       1.0  0.53346  0.64995  0.75530  1.0000
  H   H29       1.0  0.03286  0.84851  0.75478  1.0000
  H   H30       1.0  0.53361  0.34896  0.73777  1.0000
  H   H31       1.0  0.96782  0.15131  0.76297  1.0000
  H   H32       1.0  0.46338  0.65027  0.74168  1.0000
  N   N17       1.0  0.44621  0.49972  0.74057  1.0000
  N   N18       1.0  0.94777  0.00062  0.74111  1.0000
  N   N19       1.0  0.55111  0.49978  0.73845  1.0000
  N   N20       1.0  0.05208  0.99904  0.73946  1.0000
  C   C113      1.0  0.42492  0.46708  0.75039  1.0000
  C   C114      1.0  0.92568  0.96828  0.74119  1.0000
  C   C115      1.0  0.57244  0.53248  0.74775  1.0000
  C   C116      1.0  0.07421  0.03121  0.73421  1.0000
  C   C117      1.0  0.57270  0.46710  0.73683  1.0000
  C   C118      1.0  0.07283  0.96577  0.73771  1.0000
  C   C119      1.0  0.42466  0.53226  0.74004  1.0000
  C   C120      1.0  0.92691  0.03391  0.74345  1.0000
  C   C121      1.0  0.38912  0.47940  0.75561  1.0000
  C   C122      1.0  0.89020  0.98167  0.74144  1.0000
  C   C123      1.0  0.60824  0.52007  0.75112  1.0000
  C   C124      1.0  0.10954  0.01772  0.72531  1.0000
  C   C125      1.0  0.60839  0.47969  0.74319  1.0000
  C   C126      1.0  0.10869  0.97721  0.72701  1.0000
  C   C127      1.0  0.38902  0.51980  0.74904  1.0000
  C   C128      1.0  0.89093  0.02218  0.74312  1.0000
  H   H33       1.0  0.36716  0.45968  0.76417  1.0000
  H   H34       1.0  0.86786  0.96226  0.74250  1.0000
  H   H35       1.0  0.63017  0.53978  0.76009  1.0000
  H   H36       1.0  0.13186  0.03699  0.71891  1.0000
  H   H37       1.0  0.63042  0.45988  0.74354  1.0000
  H   H38       1.0  0.13004  0.95653  0.72131  1.0000
  H   H39       1.0  0.36717  0.53977  0.75356  1.0000
  H   H40       1.0  0.86933  0.04261  0.74591  1.0000
  C   C129      1.0  0.93545  0.92827  0.74719  1.0000
  C   C130      1.0  0.43598  0.42767  0.75412  1.0000
  C   C131      1.0  0.06441  0.07103  0.74128  1.0000
  C   C132      1.0  0.56154  0.57199  0.75422  1.0000
  C   C133      1.0  0.06160  0.92648  0.74720  1.0000
  C   C134      1.0  0.56234  0.42730  0.73421  1.0000
  C   C135      1.0  0.93812  0.07339  0.75041  1.0000
  C   C136      1.0  0.43513  0.57190  0.73668  1.0000
  F   F17       1.0  0.17905  0.72811  0.77845  1.0000
  F   F18       1.0  0.68339  0.22986  0.75679  1.0000
  F   F19       1.0  0.81936  0.27359  0.75735  1.0000
  F   F20       1.0  0.31610  0.76797  0.75245  1.0000
  F   F21       1.0  0.81612  0.72819  0.74242  1.0000
  F   F22       1.0  0.31515  0.22813  0.72743  1.0000
  F   F23       1.0  0.18014  0.27584  0.74712  1.0000
  F   F24       1.0  0.68055  0.77373  0.76235  1.0000
  Cu  Cu3       1.0  0.49868  0.49978  0.74031  1.0000
  Cu  Cu4       1.0  0.99989  0.99980  0.74563  1.0000
  C   C137      1.0  0.29806  0.68448  0.75869  1.0000
  H   H41       1.0  0.28829  0.65522  0.78160  1.0000
  C   C138      1.0  0.80263  0.18811  0.75749  1.0000
  H   H42       1.0  0.79169  0.15806  0.75294  1.0000
  C   C139      1.0  0.69993  0.31394  0.73327  1.0000
  H   H43       1.0  0.71058  0.34338  0.71519  1.0000
  C   C140      1.0  0.19744  0.81194  0.77107  1.0000
  H   H44       1.0  0.20854  0.84168  0.77966  1.0000
  C   C141      1.0  0.69644  0.68814  0.74386  1.0000
  H   H45       1.0  0.70661  0.65893  0.72204  1.0000
  C   C142      1.0  0.19457  0.19178  0.73029  1.0000
  H   H46       1.0  0.20208  0.16474  0.68942  1.0000
  C   C143      1.0  0.30025  0.31369  0.74440  1.0000
  H   H47       1.0  0.28990  0.34344  0.75894  1.0000
  C   C144      1.0  0.80068  0.81270  0.75093  1.0000
  H   H48       1.0  0.79129  0.84169  0.72418  1.0000
  F   F25       1.0  0.22725  0.67057  0.76812  1.0000
  F   F26       1.0  0.73104  0.17366  0.75781  1.0000
  F   F27       1.0  0.77204  0.32831  0.73293  1.0000
  F   F28       1.0  0.26902  0.82541  0.75774  1.0000
  F   F29       1.0  0.76731  0.67279  0.73732  1.0000
  F   F30       1.0  0.26561  0.17452  0.72229  1.0000
  F   F31       1.0  0.23073  0.33115  0.74751  1.0000
  F   F32       1.0  0.72927  0.82890  0.75757  1.0000
  N   N21       1.0  0.32955  0.69004  0.72997  1.0000
  N   N22       1.0  0.83522  0.19487  0.76506  1.0000
  N   N23       1.0  0.66745  0.30774  0.74666  1.0000
  N   N24       1.0  0.16490  0.80584  0.75821  1.0000
  N   N25       1.0  0.66467  0.69348  0.76976  1.0000
  N   N26       1.0  0.16511  0.19491  0.77563  1.0000
  N   N27       1.0  0.33273  0.30713  0.73366  1.0000
  N   N28       1.0  0.83205  0.80720  0.78151  1.0000
  N   N29       1.0  0.99869  0.93974  0.75080  1.0000
  N   N30       1.0  0.49915  0.44005  0.74082  1.0000
  N   N31       1.0  0.00105  0.05968  0.74997  1.0000
  N   N32       1.0  0.49827  0.55939  0.74706  1.0000
  C  Sn1       1.0  0.36921  0.36726  0.34695  1.0000
  C   C145      1.0  0.35679  0.34630  0.26233  1.0000
  C  Sn2       1.0  0.37453  0.34754  0.16899  1.0000
  C  Sn3       1.0  0.40534  0.37018  0.16005  1.0000
  C   C146      1.0  0.41774  0.39112  0.24464  1.0000
  C  Sn4       1.0  0.40002  0.38990  0.33801  1.0000
  O  Te1       1.0  0.35106  0.36559  0.43951  1.0000
  O  Te2       1.0  0.36160  0.32635  0.08546  1.0000
  O  Te3       1.0  0.42348  0.37183  0.06739  1.0000
  O  Te4       1.0  0.41293  0.41107  0.42150  1.0000
  Mg  Mg1       1.0  0.39574  0.33575  0.97556  1.0000
  Mg  Mg2       1.0  0.37902  0.39952  0.53145  1.0000
  C  Sn5       1.0  0.87882  0.88831  0.16001  1.0000
  C   C147      1.0  0.90187  0.89966  0.23714  1.0000
  C  Sn6       1.0  0.90610  0.87610  0.32478  1.0000
  C  Sn7       1.0  0.88691  0.84045  0.33553  1.0000
  C   C148      1.0  0.86388  0.82911  0.25843  1.0000
  C  Sn8       1.0  0.85963  0.85265  0.17076  1.0000
  O  Te5       1.0  0.87501  0.91231  0.07304  1.0000
  O  Te6       1.0  0.92929  0.88807  0.40088  1.0000
  O  Te7       1.0  0.89074  0.81645  0.42259  1.0000
  O  Te8       1.0  0.83646  0.84070  0.09469  1.0000
  Mg  Mg3       1.0  0.92549  0.84535  0.50512  1.0000
  Mg  Mg4       1.0  0.84045  0.88124  0.99039  1.0000
  C  Sn9       1.0  0.62651  0.63567  0.36130  1.0000
  C   C149      1.0  0.64621  0.65355  0.28391  1.0000
  C  Sn10      1.0  0.63628  0.65027  0.18122  1.0000
  C  Sn11      1.0  0.60602  0.62871  0.15532  1.0000
  C   C150      1.0  0.58633  0.61086  0.23268  1.0000
  C  Sn12      1.0  0.59624  0.61411  0.33540  1.0000
  O  Te9       1.0  0.63692  0.63933  0.46345  1.0000
  O  Te10      1.0  0.65640  0.66838  0.10520  1.0000
  O  Te11      1.0  0.59562  0.62506  0.05307  1.0000
  O  Te12      1.0  0.57614  0.59602  0.41139  1.0000
  Mg  Mg5       1.0  0.63174  0.65286  0.97706  1.0000
  Mg  Mg6       1.0  0.60095  0.60939  0.53955  1.0000
  C  Sn13      1.0  0.10283  0.13098  0.35764  1.0000
  C   C151      1.0  0.08850  0.11353  0.27036  1.0000
  C  Sn14      1.0  0.10473  0.11756  0.17512  1.0000
  C  Sn15      1.0  0.13596  0.13946  0.16694  1.0000
  C   C152      1.0  0.15029  0.15689  0.25418  1.0000
  C  Sn16      1.0  0.13407  0.15289  0.34946  1.0000
  O  Te13      1.0  0.08616  0.12657  0.45207  1.0000
  O  Te14      1.0  0.08989  0.09985  0.08894  1.0000
  O  Te15      1.0  0.15263  0.14386  0.07240  1.0000
  O  Te16      1.0  0.14889  0.17057  0.43560  1.0000
  Mg  Mg7       1.0  0.12252  0.11209  0.97721  1.0000
  Mg  Mg8       1.0  0.11648  0.15620  0.54737  1.0000
  C  Sn17      1.0  0.59865  0.36925  0.15025  1.0000
  C   C153      1.0  0.58803  0.38863  0.23937  1.0000
  C  Sn18      1.0  0.60695  0.38456  0.33019  1.0000
  C  Sn19      1.0  0.63712  0.36064  0.33197  1.0000
  C   C154      1.0  0.64773  0.34128  0.24289  1.0000
  C  Sn20      1.0  0.62882  0.34533  0.15203  1.0000
  O  Te17      1.0  0.57934  0.37374  0.06032  1.0000
  O  Te18      1.0  0.59581  0.40421  0.41832  1.0000
  O  Te19      1.0  0.65642  0.35616  0.42201  1.0000
  O  Te20      1.0  0.63994  0.32570  0.06395  1.0000
  Mg  Mg9       1.0  0.63082  0.38887  0.52216  1.0000
  Mg  Mg10      1.0  0.60516  0.33888  0.96006  1.0000
  C  Sn21      1.0  0.12254  0.85414  0.35447  1.0000
  C   C155      1.0  0.13387  0.83315  0.26864  1.0000
  C  Sn22      1.0  0.12668  0.84713  0.16980  1.0000
  C  Sn23      1.0  0.10778  0.88284  0.15645  1.0000
  C   C156      1.0  0.09647  0.90381  0.24224  1.0000
  C  Sn24      1.0  0.10364  0.88985  0.34112  1.0000
  O  Te21      1.0  0.13002  0.83961  0.45257  1.0000
  O  Te22      1.0  0.13827  0.82562  0.08517  1.0000
  O  Te23      1.0  0.10030  0.89735  0.05825  1.0000
  O  Te24      1.0  0.09207  0.91134  0.42571  1.0000
  Mg  Mg11      1.0  0.12183  0.85536  0.96703  1.0000
  Mg  Mg12      1.0  0.10869  0.87949  0.54388  1.0000
  C  Sn25      1.0  0.38329  0.61790  0.34962  1.0000
  C   C157      1.0  0.39955  0.59916  0.26732  1.0000
  C  Sn26      1.0  0.39626  0.61437  0.16787  1.0000
  C  Sn27      1.0  0.37633  0.64907  0.15031  1.0000
  C   C158      1.0  0.36009  0.66779  0.23258  1.0000
  C  Sn28      1.0  0.36336  0.65259  0.33206  1.0000
  O  Te25      1.0  0.38693  0.60217  0.44840  1.0000
  O  Te26      1.0  0.41274  0.59511  0.08681  1.0000
  O  Te27      1.0  0.37270  0.66479  0.05143  1.0000
  O  Te28      1.0  0.34690  0.67184  0.41309  1.0000
  Mg  Mg13      1.0  0.40027  0.62580  0.96610  1.0000
  Mg  Mg14      1.0  0.35955  0.63904  0.53383  1.0000
  C  Sn29      1.0  0.87297  0.14048  0.13831  1.0000
  C   C159      1.0  0.85455  0.15386  0.22362  1.0000
  C  Sn30      1.0  0.86519  0.14358  0.32272  1.0000
  C  Sn31      1.0  0.89487  0.11944  0.33686  1.0000
  C   C160      1.0  0.91328  0.10608  0.25159  1.0000
  C  Sn32      1.0  0.90265  0.11634  0.15245  1.0000
  O  Te29      1.0  0.86187  0.15112  0.03995  1.0000
  O  Te30      1.0  0.84635  0.15731  0.40681  1.0000
  O  Te31      1.0  0.90596  0.10880  0.43533  1.0000
  O  Te32      1.0  0.92148  0.10263  0.06840  1.0000
  Mg  Mg15      1.0  0.87174  0.13483  0.52560  1.0000
  Mg  Mg16      1.0  0.89631  0.12296  0.94959  1.0000
  C  Sn33      1.0  0.38355  0.38605  0.65002  1.0000
  C   C161      1.0  0.39842  0.40223  0.73816  1.0000
  C  Sn34      1.0  0.39432  0.38350  0.83326  1.0000
  C  Sn35      1.0  0.37496  0.34783  0.84042  1.0000
  C   C162      1.0  0.36011  0.33167  0.75232  1.0000
  C  Sn36      1.0  0.36419  0.35039  0.65717  1.0000
  O  Te33      1.0  0.38799  0.40528  0.55574  1.0000
  O  Te34      1.0  0.40943  0.40025  0.92031  1.0000
  O  Te35      1.0  0.37054  0.32861  0.93480  1.0000
  O  Te36      1.0  0.34910  0.33365  0.57016  1.0000
  Mg  Mg17      1.0  0.39591  0.36513  0.03143  1.0000
  Mg  Mg18      1.0  0.36243  0.37088  0.45900  1.0000
  C  Sn37      1.0  0.90533  0.86161  0.84540  1.0000
  C   C163      1.0  0.91263  0.88601  0.76110  1.0000
  C  Sn38      1.0  0.88948  0.88851  0.67896  1.0000
  C  Sn39      1.0  0.85838  0.86616  0.68115  1.0000
  C   C164      1.0  0.85109  0.84178  0.76541  1.0000
  C  Sn40      1.0  0.87423  0.83926  0.84759  1.0000
  O  Te37      1.0  0.92885  0.85957  0.92667  1.0000
  O  Te38      1.0  0.89734  0.91310  0.59551  1.0000
  O  Te39      1.0  0.83486  0.86821  0.59978  1.0000
  O  Te40      1.0  0.86638  0.81470  0.93101  1.0000
  Mg  Mg19      1.0  0.85712  0.90591  0.50330  1.0000
  Mg  Mg20      1.0  0.90639  0.82402  0.02327  1.0000
  C  Sn41      1.0  0.62548  0.63634  0.86588  1.0000
  C   C165      1.0  0.64342  0.65289  0.78295  1.0000
  C  Sn42      1.0  0.63187  0.64686  0.68264  1.0000
  C  Sn43      1.0  0.60176  0.62384  0.66483  1.0000
  C   C166      1.0  0.58383  0.60732  0.74772  1.0000
  C  Sn44      1.0  0.59536  0.61332  0.84807  1.0000
  O  Te41      1.0  0.63748  0.64276  0.96552  1.0000
  O  Te42      1.0  0.65025  0.66368  0.60098  1.0000
  O  Te43      1.0  0.58976  0.61743  0.56509  1.0000
  O  Te44      1.0  0.57700  0.59652  0.92970  1.0000
  Mg  Mg21      1.0  0.62363  0.64653  0.47917  1.0000
  Mg  Mg22      1.0  0.60339  0.61582  0.05154  1.0000
  C  Sn45      1.0  0.11826  0.11908  0.65215  1.0000
  C   C167      1.0  0.10145  0.09864  0.73128  1.0000
  C  Sn46      1.0  0.10239  0.11304  0.83155  1.0000
  C  Sn47      1.0  0.12050  0.14863  0.85318  1.0000
  C   C168      1.0  0.13730  0.16906  0.77408  1.0000
  C  Sn48      1.0  0.13637  0.15468  0.67378  1.0000
  O  Te45      1.0  0.11698  0.10414  0.55248  1.0000
  O  Te46      1.0  0.08540  0.09207  0.90939  1.0000
  O  Te47      1.0  0.12178  0.16356  0.95296  1.0000
  O  Te48      1.0  0.15335  0.17563  0.59597  1.0000
  Mg  Mg23      1.0  0.09439  0.12653  0.03286  1.0000
  Mg  Mg24      1.0  0.14417  0.14335  0.47247  1.0000
  C  Sn49      1.0  0.62060  0.35593  0.84283  1.0000
  C   C169      1.0  0.63453  0.33491  0.76051  1.0000
  C  Sn50      1.0  0.62869  0.34756  0.65972  1.0000
  C  Sn51      1.0  0.60852  0.38197  0.64082  1.0000
  C   C170      1.0  0.59461  0.40299  0.72312  1.0000
  C  Sn52      1.0  0.60043  0.39034  0.82393  1.0000
  O  Te49      1.0  0.62677  0.34274  0.94296  1.0000
  O  Te50      1.0  0.64288  0.32604  0.57867  1.0000
  O  Te51      1.0  0.60236  0.39516  0.54060  1.0000
  O  Te52      1.0  0.58626  0.41185  0.90495  1.0000
  Mg  Mg25      1.0  0.62722  0.35585  0.45584  1.0000
  Mg  Mg26      1.0  0.60173  0.38423  0.02780  1.0000
  C  Sn53      1.0  0.12567  0.86009  0.65093  1.0000
  C   C171      1.0  0.14391  0.84626  0.73655  1.0000
  C  Sn54      1.0  0.13235  0.85480  0.83552  1.0000
  C  Sn55      1.0  0.10189  0.87761  0.84922  1.0000
  C   C172      1.0  0.08366  0.89142  0.76364  1.0000
  C  Sn56      1.0  0.09522  0.88290  0.66463  1.0000
  O  Te53      1.0  0.13771  0.85120  0.55269  1.0000
  O  Te54      1.0  0.15103  0.84066  0.91994  1.0000
  O  Te55      1.0  0.08986  0.88650  0.94757  1.0000
  O  Te56      1.0  0.07655  0.89702  0.58025  1.0000
  Mg  Mg27      1.0  0.12405  0.86272  0.03839  1.0000
  Mg  Mg28      1.0  0.10331  0.87711  0.46177  1.0000
  C  Sn57      1.0  0.39308  0.62845  0.63276  1.0000
  C   C173      1.0  0.40952  0.61128  0.71758  1.0000
  C  Sn58      1.0  0.39562  0.61551  0.81583  1.0000
  C  Sn59      1.0  0.36462  0.63734  0.82960  1.0000
  C   C174      1.0  0.34819  0.65448  0.74482  1.0000
  C  Sn60      1.0  0.36208  0.65027  0.64653  1.0000
  O  Te57      1.0  0.40743  0.62383  0.53523  1.0000
  O  Te58      1.0  0.41253  0.59809  0.89946  1.0000
  O  Te59      1.0  0.35027  0.64194  0.92723  1.0000
  O  Te60      1.0  0.34518  0.66767  0.56294  1.0000
  Mg  Mg29      1.0  0.38266  0.61482  0.01712  1.0000
  Mg  Mg30      1.0  0.37483  0.65309  0.44525  1.0000
  C  Sn61      1.0  0.89325  0.12552  0.86030  1.0000
  C   C175      1.0  0.90272  0.10176  0.77740  1.0000
  C  Sn62      1.0  0.89279  0.11210  0.67769  1.0000
  C  Sn63      1.0  0.87300  0.14692  0.66048  1.0000
  C   C176      1.0  0.86355  0.17066  0.74334  1.0000
  C  Sn64      1.0  0.87346  0.16035  0.84308  1.0000
  O  Te61      1.0  0.90347  0.11462  0.95932  1.0000
  O  Te62      1.0  0.90255  0.08787  0.59604  1.0000
  O  Te63      1.0  0.86279  0.15781  0.56135  1.0000
  O  Te64      1.0  0.86371  0.18456  0.92470  1.0000
  Mg  Mg31      1.0  0.88242  0.11522  0.47519  1.0000
  Mg  Mg32      1.0  0.88366  0.15939  0.04557  1.0000
