data_image0
_chemical_formula_structural       C28H8N4C16H8C20H8C8H8C4H4Cu2CHCHCHCHCHCHCHCH5N12C34H8N4C16H8C17H6C6H6C3H6Cu2CHCHCHCHCHCHCHCH7N12C2Sn2C2HTe2HMgC2Sn2C2HTe2HMgC2Sn2C2HTe2HMgC2Sn2C2HTe2HMgC2Sn2C2HTe2HMgC2Sn2C2HTe2HMgC2Sn2C2HTe2HMgC2Sn2C2HTe2HMgC2Sn2C2HTe2HMgC2Sn2C2HTe2HMgC2Sn2C2HTe2HMgC2Sn2C2HTe2HMg
_chemical_formula_sum              "C216 H120 N32 Cu4 Sn24 Te24 Mg12"
_cell_length_a       38.5308
_cell_length_b       33.6665
_cell_length_c       9.87309
_cell_angle_alpha    76.1457
_cell_angle_beta     92.7529
_cell_angle_gamma    90.0191

_symmetry_space_group_name_H-M    'P1'
_space_group_IT_number       1

loop_
  _space_group_symop_operation_xyz
  'x, y, z'

loop_
  _atom_site_type_symbol
  _atom_site_label
  _atom_site_symmetry_multiplicity
  _atom_site_fract_x
  _atom_site_fract_y
  _atom_site_fract_z
  _atom_site_occupancy
  C   C1        1.0  0.72312  0.72605  0.23637  1.0000
  C   C2        1.0  0.22709  0.22089  0.23201  1.0000
  C   C3        1.0  0.28030  0.27715  0.25003  1.0000
  C   C4        1.0  0.77527  0.78454  0.23767  1.0000
  C   C5        1.0  0.78411  0.74472  0.22808  1.0000
  C   C6        1.0  0.28648  0.24401  0.18996  1.0000
  C   C7        1.0  0.22089  0.25434  0.29044  1.0000
  C   C8        1.0  0.71426  0.76590  0.24536  1.0000
  C   C9        1.0  0.75830  0.71611  0.22613  1.0000
  C   C10       1.0  0.26025  0.21615  0.18191  1.0000
  C   C11       1.0  0.24717  0.28189  0.29959  1.0000
  C   C12       1.0  0.74000  0.79477  0.24435  1.0000
  C   C13       1.0  0.97315  0.91479  0.25687  1.0000
  C   C14       1.0  0.47474  0.41492  0.26071  1.0000
  C   C15       1.0  0.03056  0.08535  0.23898  1.0000
  C   C16       1.0  0.53049  0.58641  0.23073  1.0000
  C   C17       1.0  0.03044  0.91490  0.24938  1.0000
  C   C18       1.0  0.53213  0.41531  0.26517  1.0000
  C   C19       1.0  0.97321  0.08509  0.24307  1.0000
  C   C20       1.0  0.47313  0.58571  0.23464  1.0000
  C   C21       1.0  0.98399  0.87340  0.26389  1.0000
  C   C22       1.0  0.48634  0.37286  0.29083  1.0000
  C   C23       1.0  0.01917  0.12717  0.22164  1.0000
  C   C24       1.0  0.51881  0.62847  0.20236  1.0000
  C   C25       1.0  0.01923  0.87324  0.26272  1.0000
  C   C26       1.0  0.52167  0.37315  0.29371  1.0000
  C   C27       1.0  0.98389  0.12699  0.22508  1.0000
  C   C28       1.0  0.48343  0.62798  0.20542  1.0000
  H   H1        1.0  0.96666  0.84776  0.26891  1.0000
  H   H2        1.0  0.46956  0.34646  0.31046  1.0000
  H   H3        1.0  0.03613  0.15338  0.20681  1.0000
  H   H4        1.0  0.53544  0.65493  0.18166  1.0000
  H   H5        1.0  0.03626  0.84711  0.27077  1.0000
  H   H6        1.0  0.53936  0.34717  0.31491  1.0000
  H   H7        1.0  0.96646  0.15288  0.21545  1.0000
  H   H8        1.0  0.46579  0.65392  0.18691  1.0000
  N   N1        1.0  0.44989  0.50013  0.24713  1.0000
  N   N2        1.0  0.94929  0.00016  0.24716  1.0000
  N   N3        1.0  0.55549  0.50098  0.24816  1.0000
  N   N4        1.0  0.05440  0.00025  0.24152  1.0000
  C   C29       1.0  0.42849  0.46742  0.24148  1.0000
  C   C30       1.0  0.92782  0.96683  0.25545  1.0000
  C   C31       1.0  0.57683  0.53402  0.24911  1.0000
  C   C32       1.0  0.07608  0.03297  0.24401  1.0000
  C   C33       1.0  0.57732  0.46823  0.24934  1.0000
  C   C34       1.0  0.07588  0.96765  0.23668  1.0000
  C   C35       1.0  0.42811  0.53250  0.25177  1.0000
  C   C36       1.0  0.92784  0.03262  0.25224  1.0000
  C   C37       1.0  0.39262  0.47998  0.23933  1.0000
  C   C38       1.0  0.89225  0.97857  0.26692  1.0000
  C   C39       1.0  0.61280  0.52140  0.25405  1.0000
  C   C40       1.0  0.11183  0.02023  0.24348  1.0000
  C   C41       1.0  0.61303  0.48122  0.24830  1.0000
  C   C42       1.0  0.11162  0.98051  0.23342  1.0000
  C   C43       1.0  0.39245  0.51932  0.25276  1.0000
  C   C44       1.0  0.89231  0.01931  0.26534  1.0000
  H   H9        1.0  0.37032  0.46118  0.22959  1.0000
  H   H10       1.0  0.87041  0.95816  0.27607  1.0000
  H   H11       1.0  0.63498  0.54050  0.26112  1.0000
  H   H12       1.0  0.13422  0.03909  0.25020  1.0000
  H   H13       1.0  0.63531  0.46219  0.24457  1.0000
  H   H14       1.0  0.13371  0.96156  0.22565  1.0000
  H   H15       1.0  0.37006  0.53776  0.26133  1.0000
  H   H16       1.0  0.87065  0.03859  0.27548  1.0000
  C   C45       1.0  0.93839  0.92678  0.25924  1.0000
  C   C46       1.0  0.43956  0.42720  0.24720  1.0000
  C   C47       1.0  0.06564  0.07306  0.24305  1.0000
  C   C48       1.0  0.56570  0.57430  0.24147  1.0000
  C   C49       1.0  0.06531  0.92741  0.23976  1.0000
  C   C50       1.0  0.56698  0.42786  0.25602  1.0000
  C   C51       1.0  0.93834  0.07272  0.24893  1.0000
  C   C52       1.0  0.43841  0.57280  0.24801  1.0000
  C   C53       1.0  0.41327  0.39518  0.24444  1.0000
  C   C54       1.0  0.09266  0.10459  0.24392  1.0000
  C   C55       1.0  0.09190  0.89573  0.23696  1.0000
  C   C56       1.0  0.59363  0.39634  0.25238  1.0000
  C   C57       1.0  0.38501  0.38982  0.33247  1.0000
  C   C58       1.0  0.09196  0.12966  0.33958  1.0000
  C   C59       1.0  0.58924  0.37128  0.15721  1.0000
  C   C60       1.0  0.08715  0.86874  0.14829  1.0000
  C   C61       1.0  0.11906  0.11152  0.14706  1.0000
  C   C62       1.0  0.41631  0.36774  0.15771  1.0000
  C   C63       1.0  0.62318  0.38920  0.34511  1.0000
  C   C64       1.0  0.12182  0.88976  0.32779  1.0000
  H   H17       1.0  0.38327  0.40860  0.40751  1.0000
  H   H18       1.0  0.07197  0.12466  0.41621  1.0000
  H   H19       1.0  0.06461  0.87301  0.07530  1.0000
  H   H20       1.0  0.56686  0.37638  0.08328  1.0000
  H   H21       1.0  0.11873  0.09477  0.06569  1.0000
  H   H22       1.0  0.43757  0.37128  0.08719  1.0000
  H   H23       1.0  0.12483  0.90813  0.40423  1.0000
  H   H24       1.0  0.62607  0.40639  0.42505  1.0000
  C   C65       1.0  0.36019  0.36012  0.32978  1.0000
  C   C66       1.0  0.11644  0.16017  0.33864  1.0000
  C   C67       1.0  0.11091  0.83748  0.15078  1.0000
  C   C68       1.0  0.61337  0.34083  0.15445  1.0000
  C   C69       1.0  0.14447  0.14081  0.14923  1.0000
  C   C70       1.0  0.39211  0.33708  0.15775  1.0000
  C   C71       1.0  0.14628  0.85951  0.32764  1.0000
  C   C72       1.0  0.64756  0.35913  0.34163  1.0000
  H   H25       1.0  0.33938  0.35668  0.40239  1.0000
  H   H26       1.0  0.11576  0.17970  0.41190  1.0000
  H   H27       1.0  0.10698  0.81704  0.08123  1.0000
  H   H28       1.0  0.61019  0.32197  0.07960  1.0000
  H   H29       1.0  0.16386  0.14643  0.07060  1.0000
  H   H30       1.0  0.39443  0.31649  0.08894  1.0000
  H   H31       1.0  0.16812  0.85486  0.40411  1.0000
  H   H32       1.0  0.66889  0.35282  0.42017  1.0000
  C   C73       1.0  0.36276  0.33363  0.23920  1.0000
  C   C74       1.0  0.14397  0.16514  0.24728  1.0000
  C   C75       1.0  0.14167  0.83328  0.23615  1.0000
  C   C76       1.0  0.64364  0.33521  0.24262  1.0000
  H   H33       1.0  0.81132  0.73723  0.22181  1.0000
  H   H34       1.0  0.31202  0.24130  0.15058  1.0000
  H   H35       1.0  0.19538  0.25780  0.32924  1.0000
  H   H36       1.0  0.68701  0.77298  0.25344  1.0000
  Cu  Cu1       1.0  0.50266  0.50061  0.24658  1.0000
  Cu  Cu2       1.0  0.00188  0.00009  0.24688  1.0000
  C   C77       1.0  0.30401  0.68808  0.25596  1.0000
  H   H37       1.0  0.29463  0.65901  0.23606  1.0000
  C   C78       1.0  0.80639  0.19513  0.21651  1.0000
  H   H38       1.0  0.79722  0.17031  0.16824  1.0000
  C   C79       1.0  0.70012  0.30923  0.26373  1.0000
  H   H39       1.0  0.70915  0.33438  0.30944  1.0000
  C   C80       1.0  0.19793  0.80696  0.25892  1.0000
  H   H40       1.0  0.20731  0.83352  0.29654  1.0000
  C   C81       1.0  0.69701  0.69470  0.23794  1.0000
  H   H41       1.0  0.70659  0.66544  0.22196  1.0000
  C   C82       1.0  0.20044  0.19047  0.22527  1.0000
  H   H42       1.0  0.20922  0.16287  0.19479  1.0000
  C   C83       1.0  0.30698  0.30687  0.26184  1.0000
  H   H43       1.0  0.29841  0.33249  0.30391  1.0000
  C   C84       1.0  0.80201  0.81508  0.24235  1.0000
  H   H44       1.0  0.79281  0.84704  0.22536  1.0000
  H   H45       1.0  0.76497  0.68539  0.21753  1.0000
  H   H46       1.0  0.26487  0.19054  0.13534  1.0000
  H   H47       1.0  0.24246  0.30732  0.34701  1.0000
  H   H48       1.0  0.73312  0.82564  0.25073  1.0000
  N   N5        1.0  0.33671  0.69383  0.28091  1.0000
  N   N6        1.0  0.83806  0.19601  0.26835  1.0000
  N   N7        1.0  0.66788  0.30610  0.22469  1.0000
  N   N8        1.0  0.16561  0.80311  0.22374  1.0000
  N   N9        1.0  0.66470  0.70010  0.25956  1.0000
  N   N10       1.0  0.16863  0.19500  0.25758  1.0000
  N   N11       1.0  0.33840  0.30383  0.22408  1.0000
  N   N12       1.0  0.83422  0.80533  0.26868  1.0000
  N   N13       1.0  0.00188  0.93987  0.24849  1.0000
  N   N14       1.0  0.50312  0.44048  0.24988  1.0000
  N   N15       1.0  0.00200  0.06001  0.24930  1.0000
  N   N16       1.0  0.50215  0.56074  0.24478  1.0000
  C   C85       1.0  0.77436  0.22042  0.75105  1.0000
  C   C86       1.0  0.72247  0.27986  0.74876  1.0000
  C   C87       1.0  0.72098  0.72358  0.75199  1.0000
  C   C88       1.0  0.22188  0.22017  0.75590  1.0000
  C   C89       1.0  0.27425  0.27739  0.77333  1.0000
  C   C90       1.0  0.77357  0.78189  0.75250  1.0000
  C   C91       1.0  0.71342  0.24176  0.72212  1.0000
  C   C92       1.0  0.78340  0.25877  0.77585  1.0000
  C   C93       1.0  0.78220  0.74172  0.74633  1.0000
  C   C94       1.0  0.28076  0.24460  0.71197  1.0000
  C   C95       1.0  0.21528  0.25319  0.81605  1.0000
  C   C96       1.0  0.71239  0.76374  0.75872  1.0000
  C   C97       1.0  0.73899  0.21257  0.72416  1.0000
  C   C98       1.0  0.75780  0.28776  0.77549  1.0000
  C   C99       1.0  0.75625  0.71322  0.74530  1.0000
  C   C100      1.0  0.25499  0.21632  0.70425  1.0000
  C   C101      1.0  0.24123  0.28119  0.82541  1.0000
  C   C102      1.0  0.73833  0.79241  0.75797  1.0000
  C   C103      1.0  0.96971  0.91452  0.75510  1.0000
  C   C104      1.0  0.46947  0.41462  0.76508  1.0000
  C   C105      1.0  0.02674  0.08506  0.71280  1.0000
  C   C106      1.0  0.52719  0.58590  0.73188  1.0000
  C   C107      1.0  0.02685  0.91500  0.73923  1.0000
  C   C108      1.0  0.52684  0.41466  0.76109  1.0000
  C   C109      1.0  0.96944  0.08474  0.71892  1.0000
  C   C110      1.0  0.46985  0.58594  0.73411  1.0000
  C   C111      1.0  0.97984  0.87464  0.74001  1.0000
  C   C112      1.0  0.48077  0.37256  0.78977  1.0000
  C   C113      1.0  0.01495  0.12678  0.66092  1.0000
  C   C114      1.0  0.51580  0.62810  0.70049  1.0000
  C   C115      1.0  0.01510  0.87460  0.73365  1.0000
  C   C116      1.0  0.51602  0.37261  0.78667  1.0000
  C   C117      1.0  0.97946  0.12657  0.66336  1.0000
  C   C118      1.0  0.48046  0.62811  0.70264  1.0000
  H   H49       1.0  0.96222  0.84969  0.73805  1.0000
  H   H50       1.0  0.46377  0.34632  0.81056  1.0000
  H   H51       1.0  0.03174  0.15259  0.62461  1.0000
  H   H52       1.0  0.53275  0.65432  0.67752  1.0000
  H   H53       1.0  0.03176  0.84930  0.72763  1.0000
  H   H54       1.0  0.53334  0.34628  0.80432  1.0000
  H   H55       1.0  0.96171  0.15233  0.62885  1.0000
  H   H56       1.0  0.46295  0.65426  0.68248  1.0000
  N   N17       1.0  0.44580  0.50015  0.75304  1.0000
  N   N18       1.0  0.94701  0.99817  0.77076  1.0000
  N   N19       1.0  0.55102  0.50015  0.74981  1.0000
  N   N20       1.0  0.05101  0.99898  0.74939  1.0000
  C   C119      1.0  0.42396  0.46753  0.75156  1.0000
  C   C120      1.0  0.92604  0.96411  0.79222  1.0000
  C   C121      1.0  0.57281  0.53278  0.75245  1.0000
  C   C122      1.0  0.07245  0.03139  0.75835  1.0000
  C   C123      1.0  0.57240  0.46737  0.74644  1.0000
  C   C124      1.0  0.07264  0.96590  0.75301  1.0000
  C   C125      1.0  0.42446  0.53307  0.75513  1.0000
  C   C126      1.0  0.92655  0.03002  0.78939  1.0000
  C   C127      1.0  0.38823  0.48067  0.74963  1.0000
  C   C128      1.0  0.89232  0.97433  0.83205  1.0000
  C   C129      1.0  0.60852  0.51974  0.75442  1.0000
  C   C130      1.0  0.10810  0.01748  0.77690  1.0000
  C   C131      1.0  0.60823  0.47994  0.74465  1.0000
  C   C132      1.0  0.10838  0.97781  0.76701  1.0000
  C   C133      1.0  0.38865  0.52060  0.75808  1.0000
  C   C134      1.0  0.89300  0.01474  0.83470  1.0000
  H   H57       1.0  0.36576  0.46193  0.74410  1.0000
  H   H58       1.0  0.87108  0.95313  0.85470  1.0000
  H   H59       1.0  0.63092  0.53851  0.76160  1.0000
  H   H60       1.0  0.13009  0.03594  0.79370  1.0000
  H   H61       1.0  0.63032  0.46090  0.73840  1.0000
  H   H62       1.0  0.13089  0.95852  0.76895  1.0000
  H   H63       1.0  0.36679  0.53990  0.76492  1.0000
  H   H64       1.0  0.87286  0.03257  0.86580  1.0000
  C   C135      1.0  0.93565  0.92532  0.77681  1.0000
  C   C136      1.0  0.43437  0.42710  0.75747  1.0000
  C   C137      1.0  0.06187  0.07248  0.73728  1.0000
  C   C138      1.0  0.56230  0.57332  0.74502  1.0000
  C   C139      1.0  0.06192  0.92678  0.74172  1.0000
  C   C140      1.0  0.56173  0.42714  0.75071  1.0000
  C   C141      1.0  0.93564  0.07164  0.75541  1.0000
  C   C142      1.0  0.43511  0.57338  0.74764  1.0000
  C   C143      1.0  0.40745  0.39559  0.75649  1.0000
  C   C144      1.0  0.08883  0.89580  0.73599  1.0000
  C   C145      1.0  0.40854  0.60490  0.75195  1.0000
  C   C146      1.0  0.37957  0.39052  0.84655  1.0000
  C   C147      1.0  0.08658  0.87284  0.63392  1.0000
  C   C148      1.0  0.37866  0.61127  0.66117  1.0000
  C   C149      1.0  0.40938  0.36876  0.66707  1.0000
  C   C150      1.0  0.41305  0.63042  0.84556  1.0000
  C   C151      1.0  0.11665  0.88686  0.83677  1.0000
  H   H65       1.0  0.37874  0.40888  0.92309  1.0000
  H   H66       1.0  0.06569  0.87960  0.55342  1.0000
  H   H67       1.0  0.37603  0.59395  0.58157  1.0000
  H   H68       1.0  0.43043  0.37199  0.59556  1.0000
  H   H69       1.0  0.43568  0.62599  0.91807  1.0000
  H   H70       1.0  0.11754  0.90215  0.92194  1.0000
  C   C152      1.0  0.35433  0.36118  0.84479  1.0000
  C   C153      1.0  0.11074  0.84220  0.63420  1.0000
  C   C154      1.0  0.35383  0.64072  0.66612  1.0000
  C   C155      1.0  0.38465  0.33866  0.66710  1.0000
  C   C156      1.0  0.38873  0.66065  0.84870  1.0000
  C   C157      1.0  0.14173  0.85751  0.83403  1.0000
  H   H71       1.0  0.33412  0.35731  0.92006  1.0000
  H   H72       1.0  0.10873  0.82432  0.55605  1.0000
  H   H73       1.0  0.33191  0.64642  0.59003  1.0000
  H   H74       1.0  0.38631  0.31836  0.59687  1.0000
  H   H75       1.0  0.39232  0.67990  0.92224  1.0000
  H   H76       1.0  0.16215  0.85021  0.91652  1.0000
  C   C158      1.0  0.35603  0.33508  0.75261  1.0000
  C   C159      1.0  0.13951  0.83505  0.73039  1.0000
  C   C160      1.0  0.35800  0.66526  0.76312  1.0000
  H   H77       1.0  0.68620  0.23605  0.70096  1.0000
  H   H78       1.0  0.81069  0.26484  0.79581  1.0000
  H   H79       1.0  0.80943  0.73387  0.74257  1.0000
  H   H80       1.0  0.30617  0.24226  0.67071  1.0000
  H   H81       1.0  0.18966  0.25588  0.85479  1.0000
  H   H82       1.0  0.68520  0.77151  0.76466  1.0000
  Cu  Cu3       1.0  0.49839  0.50008  0.75200  1.0000
  Cu  Cu4       1.0  0.99895  0.99875  0.75393  1.0000
  C   C161      1.0  0.30122  0.68966  0.74829  1.0000
  H   H83       1.0  0.29180  0.66146  0.72152  1.0000
  C   C162      1.0  0.79999  0.18850  0.75145  1.0000
  H   H84       1.0  0.78912  0.15943  0.73713  1.0000
  C   C163      1.0  0.69609  0.31068  0.75140  1.0000
  H   H85       1.0  0.70569  0.33872  0.77883  1.0000
  C   C164      1.0  0.19578  0.80843  0.76147  1.0000
  H   H86       1.0  0.20457  0.83418  0.80485  1.0000
  C   C165      1.0  0.69472  0.69235  0.75190  1.0000
  H   H87       1.0  0.70460  0.66276  0.73951  1.0000
  C   C166      1.0  0.19558  0.18982  0.74550  1.0000
  H   H88       1.0  0.20510  0.16254  0.71508  1.0000
  C   C167      1.0  0.30051  0.30777  0.78263  1.0000
  H   H89       1.0  0.29203  0.33332  0.82518  1.0000
  C   C168      1.0  0.80042  0.81230  0.75645  1.0000
  H   H90       1.0  0.79120  0.84388  0.74759  1.0000
  H   H91       1.0  0.73198  0.18312  0.70395  1.0000
  H   H92       1.0  0.76468  0.31724  0.79647  1.0000
  H   H93       1.0  0.76295  0.68222  0.73982  1.0000
  H   H94       1.0  0.25990  0.19128  0.65519  1.0000
  H   H95       1.0  0.23645  0.30628  0.87423  1.0000
  H   H96       1.0  0.73161  0.82344  0.76307  1.0000
  N   N21       1.0  0.33379  0.69497  0.77617  1.0000
  N   N22       1.0  0.83302  0.19356  0.76806  1.0000
  N   N23       1.0  0.66352  0.30560  0.72348  1.0000
  N   N24       1.0  0.16394  0.80551  0.71780  1.0000
  N   N25       1.0  0.66216  0.69819  0.76756  1.0000
  N   N26       1.0  0.16330  0.19431  0.77126  1.0000
  N   N27       1.0  0.33161  0.30511  0.74091  1.0000
  N   N28       1.0  0.83295  0.80289  0.77415  1.0000
  N   N29       1.0  0.99864  0.93905  0.75165  1.0000
  N   N30       1.0  0.49806  0.43992  0.75243  1.0000
  N   N31       1.0  0.99858  0.05955  0.74044  1.0000
  N   N32       1.0  0.49864  0.56055  0.74658  1.0000
  C   C169      1.0  0.59964  0.34443  0.63877  1.0000
  C   C170      1.0  0.63154  0.33568  0.71365  1.0000
  C  Sn1       1.0  0.64137  0.35649  0.81573  1.0000
  C  Sn2       1.0  0.61879  0.38661  0.84314  1.0000
  C   C171      1.0  0.58692  0.39513  0.76772  1.0000
  C   C172      1.0  0.57735  0.37413  0.66577  1.0000
  H   H97       1.0  0.59222  0.32817  0.55994  1.0000
  O  Te1       1.0  0.67334  0.34738  0.88955  1.0000
  O  Te2       1.0  0.62797  0.40787  0.94463  1.0000
  H   H98       1.0  0.55264  0.38089  0.60787  1.0000
  Mg  Mg1       1.0  0.66197  0.45481  0.01759  1.0000
  C   C173      1.0  0.59256  0.64046  0.35399  1.0000
  C   C174      1.0  0.58969  0.61377  0.26532  1.0000
  C  Sn3       1.0  0.61440  0.61418  0.16598  1.0000
  C  Sn4       1.0  0.64248  0.64185  0.15548  1.0000
  C   C175      1.0  0.64514  0.66840  0.24473  1.0000
  C   C176      1.0  0.62026  0.66774  0.34374  1.0000
  H   H99       1.0  0.57333  0.63994  0.43065  1.0000
  O  Te3       1.0  0.61113  0.58733  0.07818  1.0000
  O  Te4       1.0  0.66755  0.64290  0.05716  1.0000
  H   H100      1.0  0.62251  0.68839  0.41243  1.0000
  Mg  Mg2       1.0  0.66412  0.53010  0.96092  1.0000
  C   C177      1.0  0.76938  0.27891  0.31990  1.0000
  C   C178      1.0  0.73587  0.28363  0.25705  1.0000
  C  Sn5       1.0  0.72371  0.25653  0.17874  1.0000
  C  Sn6       1.0  0.74556  0.22415  0.16327  1.0000
  C   C179      1.0  0.77903  0.21968  0.22664  1.0000
  C   C180      1.0  0.79094  0.24697  0.30474  1.0000
  H   H101      1.0  0.77859  0.30002  0.38039  1.0000
  O  Te5       1.0  0.69017  0.26169  0.11661  1.0000
  O  Te6       1.0  0.73405  0.19663  0.08561  1.0000
  H   H102      1.0  0.81687  0.24330  0.35346  1.0000
  Mg  Mg3       1.0  0.68629  0.21634  0.02092  1.0000
  C   C181      1.0  0.90504  0.85135  0.39569  1.0000
  C   C182      1.0  0.91217  0.88608  0.29142  1.0000
  C  Sn7       1.0  0.89086  0.89674  0.16943  1.0000
  C  Sn8       1.0  0.86189  0.87213  0.15181  1.0000
  C   C183      1.0  0.85496  0.83746  0.25678  1.0000
  C   C184      1.0  0.87646  0.82706  0.37842  1.0000
  H   H103      1.0  0.92167  0.84331  0.48984  1.0000
  O  Te7       1.0  0.89837  0.93153  0.06627  1.0000
  O  Te8       1.0  0.84016  0.88209  0.03094  1.0000
  H   H104      1.0  0.87092  0.80018  0.45917  1.0000
  Mg  Mg4       1.0  0.87339  0.86225  0.92013  1.0000
  C   C185      1.0  0.39940  0.65300  0.37097  1.0000
  C   C186      1.0  0.37015  0.66610  0.28220  1.0000
  C  Sn9       1.0  0.36053  0.64602  0.17789  1.0000
  C  Sn10      1.0  0.38059  0.61220  0.16243  1.0000
  C   C187      1.0  0.40979  0.59930  0.25183  1.0000
  C   C188      1.0  0.41920  0.61963  0.35583  1.0000
  H   H105      1.0  0.40667  0.66871  0.45149  1.0000
  O  Te9       1.0  0.33124  0.65952  0.09006  1.0000
  O  Te10      1.0  0.37155  0.59156  0.05909  1.0000
  H   H106      1.0  0.44183  0.60946  0.42460  1.0000
  Mg  Mg5       1.0  0.34170  0.55124  0.96493  1.0000
  C   C189      1.0  0.08618  0.14238  0.83378  1.0000
  C   C190      1.0  0.08494  0.11343  0.75319  1.0000
  C  Sn11      1.0  0.11240  0.10975  0.66945  1.0000
  C  Sn12      1.0  0.14162  0.13555  0.66658  1.0000
  C   C191      1.0  0.14262  0.16440  0.74766  1.0000
  C   C192      1.0  0.11499  0.16784  0.83105  1.0000
  H   H107      1.0  0.06481  0.14503  0.89836  1.0000
  O  Te11      1.0  0.11074  0.08067  0.58954  1.0000
  O  Te12      1.0  0.16943  0.13250  0.58385  1.0000
  H   H108      1.0  0.11596  0.19024  0.89351  1.0000
  Mg  Mg6       1.0  0.15508  0.08818  0.49341  1.0000
  C   C193      1.0  0.21968  0.73161  0.19580  1.0000
  C   C194      1.0  0.22153  0.76747  0.24344  1.0000
  C  Sn13      1.0  0.25330  0.78012  0.29209  1.0000
  C  Sn14      1.0  0.28375  0.75636  0.29290  1.0000
  C   C195      1.0  0.28164  0.72054  0.24493  1.0000
  C   C196      1.0  0.24971  0.70816  0.19651  1.0000
  H   H109      1.0  0.19498  0.72204  0.15826  1.0000
  O  Te13      1.0  0.25468  0.81602  0.33936  1.0000
  O  Te14      1.0  0.31585  0.76830  0.34092  1.0000
  H   H110      1.0  0.24829  0.68041  0.15955  1.0000
  Mg  Mg7       1.0  0.30446  0.81959  0.39481  1.0000
  C   C197      1.0  0.86575  0.10422  0.68823  1.0000
  C   C198      1.0  0.90072  0.10309  0.73380  1.0000
  C  Sn15      1.0  0.91366  0.13217  0.80249  1.0000
  C  Sn16      1.0  0.89110  0.16290  0.82588  1.0000
  C   C199      1.0  0.85615  0.16374  0.77998  1.0000
  C   C200      1.0  0.84348  0.13450  0.71131  1.0000
  H   H111      1.0  0.85594  0.08158  0.63517  1.0000
  O  Te15      1.0  0.94867  0.13062  0.84728  1.0000
  O  Te16      1.0  0.90335  0.19233  0.89432  1.0000
  H   H112      1.0  0.81640  0.13537  0.67613  1.0000
  Mg  Mg8       1.0  0.95310  0.17746  0.93569  1.0000
  C   C201      1.0  0.63948  0.63129  0.65614  1.0000
  C   C202      1.0  0.63983  0.66135  0.73230  1.0000
  C  Sn17      1.0  0.61421  0.66212  0.82711  1.0000
  C  Sn18      1.0  0.58779  0.63220  0.84584  1.0000
  C   C203      1.0  0.58769  0.60224  0.76922  1.0000
  C   C204      1.0  0.61345  0.60176  0.67459  1.0000
  H   H113      1.0  0.65942  0.63090  0.58297  1.0000
  O  Te17      1.0  0.61493  0.69237  0.90231  1.0000
  O  Te18      1.0  0.56188  0.63225  0.93995  1.0000
  H   H114      1.0  0.61319  0.57847  0.61571  1.0000
  Mg  Mg9       1.0  0.56166  0.74991  0.01820  1.0000
  C   C205      1.0  0.85884  0.88233  0.65900  1.0000
  C   C206      1.0  0.85681  0.84266  0.74295  1.0000
  C  Sn19      1.0  0.88083  0.82894  0.85506  1.0000
  C  Sn20      1.0  0.90734  0.85550  0.88342  1.0000
  C   C207      1.0  0.90913  0.89514  0.79888  1.0000
  C   C208      1.0  0.88497  0.90856  0.68693  1.0000
  H   H115      1.0  0.84014  0.89272  0.57243  1.0000
  O  Te19      1.0  0.87843  0.78921  0.93785  1.0000
  O  Te20      1.0  0.93167  0.84258  0.99484  1.0000
  H   H116      1.0  0.88654  0.93928  0.62201  1.0000
  Mg  Mg10      1.0  0.90534  0.85591  0.07769  1.0000
  C   C209      1.0  0.86349  0.13660  0.13030  1.0000
  C   C210      1.0  0.85926  0.15930  0.22991  1.0000
  C  Sn21      1.0  0.88279  0.15456  0.34497  1.0000
  C  Sn22      1.0  0.91105  0.12657  0.36028  1.0000
  C   C211      1.0  0.91506  0.10403  0.26001  1.0000
  C   C212      1.0  0.89136  0.10900  0.14530  1.0000
  H   H117      1.0  0.84516  0.14046  0.04151  1.0000
  O  Te21      1.0  0.87818  0.17747  0.44354  1.0000
  O  Te22      1.0  0.93495  0.12125  0.47424  1.0000
  H   H118      1.0  0.89465  0.09144  0.06815  1.0000
  Mg  Mg11      1.0  0.91762  0.15943  0.58078  1.0000
  C   C213      1.0  0.28042  0.76594  0.80425  1.0000
  C   C214      1.0  0.27731  0.72831  0.76855  1.0000
  C  Sn23      1.0  0.24538  0.71654  0.71828  1.0000
  C  Sn24      1.0  0.21607  0.74301  0.70354  1.0000
  C   C215      1.0  0.21945  0.78060  0.73945  1.0000
  C   C216      1.0  0.25152  0.79206  0.78970  1.0000
  H   H119      1.0  0.30523  0.77482  0.84306  1.0000
  O  Te23      1.0  0.24272  0.67884  0.68315  1.0000
  O  Te24      1.0  0.18385  0.73201  0.65350  1.0000
  H   H120      1.0  0.25393  0.82121  0.81725  1.0000
  Mg  Mg12      1.0  0.19329  0.67750  0.61951  1.0000
