data_image0
_chemical_formula_structural       C22H8N4C16H8C23H10C10H10C5H2Cu2CHCHCHCHCHCHCHCH3N12C22H8N4C16H8C23H10C10H10C5H2Cu2CHCHCHCHCHCHCHCH3N12SnCSn2CSnTe4Mg2SnCSn2CSnTe4Mg2SnCSn2CSnTe4Mg2SnCSn2CSnTe4Mg2SnCSn2CSnTe4Mg2SnCSn2CSnTe4Mg2SnCSn2CSnTe4Mg2SnCSn2CSnTe4Mg2SnCSn2CSnTe4Mg2SnCSn2CSnTe4Mg2SnCSn2CSnTe4Mg2SnCSn2CSnTe4Mg2
_chemical_formula_sum              "C192 H96 N32 Cu4 Sn48 Te48 Mg24"
_cell_length_a       38.5308
_cell_length_b       33.6665
_cell_length_c       9.87309
_cell_angle_alpha    76.1457
_cell_angle_beta     92.7529
_cell_angle_gamma    90.0191

_symmetry_space_group_name_H-M    'P1'
_space_group_IT_number       1

loop_
  _space_group_symop_operation_xyz
  'x, y, z'

loop_
  _atom_site_type_symbol
  _atom_site_label
  _atom_site_symmetry_multiplicity
  _atom_site_fract_x
  _atom_site_fract_y
  _atom_site_fract_z
  _atom_site_occupancy
  C   C1        1.0  0.22709  0.22089  0.23201  1.0000
  C   C2        1.0  0.28030  0.27715  0.25003  1.0000
  C   C3        1.0  0.28648  0.24401  0.18996  1.0000
  C   C4        1.0  0.22089  0.25434  0.29044  1.0000
  C   C5        1.0  0.26025  0.21615  0.18191  1.0000
  C   C6        1.0  0.24717  0.28189  0.29959  1.0000
  C   C7        1.0  0.97315  0.91479  0.25687  1.0000
  C   C8        1.0  0.47474  0.41492  0.26071  1.0000
  C   C9        1.0  0.03056  0.08535  0.23898  1.0000
  C   C10       1.0  0.53049  0.58641  0.23073  1.0000
  C   C11       1.0  0.03044  0.91490  0.24938  1.0000
  C   C12       1.0  0.53213  0.41531  0.26517  1.0000
  C   C13       1.0  0.97321  0.08509  0.24307  1.0000
  C   C14       1.0  0.47313  0.58571  0.23464  1.0000
  C   C15       1.0  0.98399  0.87340  0.26389  1.0000
  C   C16       1.0  0.48634  0.37286  0.29083  1.0000
  C   C17       1.0  0.01917  0.12717  0.22164  1.0000
  C   C18       1.0  0.51881  0.62847  0.20236  1.0000
  C   C19       1.0  0.01923  0.87324  0.26272  1.0000
  C   C20       1.0  0.52167  0.37315  0.29371  1.0000
  C   C21       1.0  0.98389  0.12699  0.22508  1.0000
  C   C22       1.0  0.48343  0.62798  0.20542  1.0000
  H   H1        1.0  0.96666  0.84776  0.26891  1.0000
  H   H2        1.0  0.46956  0.34646  0.31046  1.0000
  H   H3        1.0  0.03613  0.15338  0.20681  1.0000
  H   H4        1.0  0.53544  0.65493  0.18166  1.0000
  H   H5        1.0  0.03626  0.84711  0.27077  1.0000
  H   H6        1.0  0.53936  0.34717  0.31491  1.0000
  H   H7        1.0  0.96646  0.15288  0.21545  1.0000
  H   H8        1.0  0.46579  0.65392  0.18691  1.0000
  N   N1        1.0  0.44989  0.50013  0.24713  1.0000
  N   N2        1.0  0.94929  0.00016  0.24716  1.0000
  N   N3        1.0  0.55549  0.50098  0.24816  1.0000
  N   N4        1.0  0.05440  0.00025  0.24152  1.0000
  C   C23       1.0  0.42849  0.46742  0.24148  1.0000
  C   C24       1.0  0.92782  0.96683  0.25545  1.0000
  C   C25       1.0  0.57683  0.53402  0.24911  1.0000
  C   C26       1.0  0.07608  0.03297  0.24401  1.0000
  C   C27       1.0  0.57732  0.46823  0.24934  1.0000
  C   C28       1.0  0.07588  0.96765  0.23668  1.0000
  C   C29       1.0  0.42811  0.53250  0.25177  1.0000
  C   C30       1.0  0.92784  0.03262  0.25224  1.0000
  C   C31       1.0  0.39262  0.47998  0.23933  1.0000
  C   C32       1.0  0.89225  0.97857  0.26692  1.0000
  C   C33       1.0  0.61280  0.52140  0.25405  1.0000
  C   C34       1.0  0.11183  0.02023  0.24348  1.0000
  C   C35       1.0  0.61303  0.48122  0.24830  1.0000
  C   C36       1.0  0.11162  0.98051  0.23342  1.0000
  C   C37       1.0  0.39245  0.51932  0.25276  1.0000
  C   C38       1.0  0.89231  0.01931  0.26534  1.0000
  H   H9        1.0  0.37032  0.46118  0.22959  1.0000
  H   H10       1.0  0.87041  0.95816  0.27607  1.0000
  H   H11       1.0  0.63498  0.54050  0.26112  1.0000
  H   H12       1.0  0.13422  0.03909  0.25020  1.0000
  H   H13       1.0  0.63531  0.46219  0.24457  1.0000
  H   H14       1.0  0.13371  0.96156  0.22565  1.0000
  H   H15       1.0  0.37006  0.53776  0.26133  1.0000
  H   H16       1.0  0.87065  0.03859  0.27548  1.0000
  C   C39       1.0  0.93839  0.92678  0.25924  1.0000
  C   C40       1.0  0.43956  0.42720  0.24720  1.0000
  C   C41       1.0  0.06564  0.07306  0.24305  1.0000
  C   C42       1.0  0.56570  0.57430  0.24147  1.0000
  C   C43       1.0  0.06531  0.92741  0.23976  1.0000
  C   C44       1.0  0.56698  0.42786  0.25602  1.0000
  C   C45       1.0  0.93834  0.07272  0.24893  1.0000
  C   C46       1.0  0.43841  0.57280  0.24801  1.0000
  C   C47       1.0  0.91099  0.89543  0.26394  1.0000
  C   C48       1.0  0.41327  0.39518  0.24444  1.0000
  C   C49       1.0  0.59206  0.60614  0.24580  1.0000
  C   C50       1.0  0.91140  0.10388  0.25367  1.0000
  C   C51       1.0  0.41155  0.60383  0.25541  1.0000
  C   C52       1.0  0.38501  0.38982  0.33247  1.0000
  C   C53       1.0  0.90946  0.86074  0.37611  1.0000
  C   C54       1.0  0.58910  0.63241  0.33672  1.0000
  C   C55       1.0  0.38135  0.60990  0.16635  1.0000
  C   C56       1.0  0.88413  0.11328  0.14935  1.0000
  C   C57       1.0  0.62013  0.61243  0.15707  1.0000
  C   C58       1.0  0.41631  0.36774  0.15771  1.0000
  C   C59       1.0  0.88592  0.89989  0.15325  1.0000
  C   C60       1.0  0.41603  0.62917  0.34973  1.0000
  C   C61       1.0  0.91345  0.12551  0.36042  1.0000
  H   H17       1.0  0.92818  0.85720  0.46440  1.0000
  H   H18       1.0  0.38327  0.40860  0.40751  1.0000
  H   H19       1.0  0.56805  0.62772  0.40833  1.0000
  H   H20       1.0  0.88304  0.09738  0.06451  1.0000
  H   H21       1.0  0.37831  0.59264  0.08667  1.0000
  H   H22       1.0  0.62207  0.59439  0.08006  1.0000
  H   H23       1.0  0.88757  0.92610  0.06470  1.0000
  H   H24       1.0  0.43757  0.37128  0.08719  1.0000
  H   H25       1.0  0.93418  0.11771  0.44246  1.0000
  H   H26       1.0  0.43876  0.62453  0.42201  1.0000
  C   C62       1.0  0.88426  0.83120  0.37592  1.0000
  C   C63       1.0  0.36019  0.36012  0.32978  1.0000
  C   C64       1.0  0.61269  0.66361  0.33768  1.0000
  C   C65       1.0  0.85973  0.14387  0.14922  1.0000
  C   C66       1.0  0.35631  0.63908  0.17285  1.0000
  C   C67       1.0  0.64435  0.64279  0.16011  1.0000
  C   C68       1.0  0.86003  0.87104  0.15401  1.0000
  C   C69       1.0  0.39211  0.33708  0.15775  1.0000
  C   C70       1.0  0.88908  0.15608  0.36121  1.0000
  C   C71       1.0  0.39156  0.65913  0.35419  1.0000
  H   H27       1.0  0.88304  0.80427  0.46212  1.0000
  H   H28       1.0  0.33938  0.35668  0.40239  1.0000
  H   H29       1.0  0.61017  0.68345  0.40893  1.0000
  H   H30       1.0  0.84020  0.15231  0.06263  1.0000
  H   H31       1.0  0.33418  0.64457  0.09799  1.0000
  H   H32       1.0  0.66467  0.64801  0.08514  1.0000
  H   H33       1.0  0.84166  0.87412  0.06497  1.0000
  H   H34       1.0  0.39443  0.31649  0.08894  1.0000
  H   H35       1.0  0.89020  0.17285  0.44356  1.0000
  H   H36       1.0  0.39500  0.67819  0.42831  1.0000
  C   C72       1.0  0.85885  0.83620  0.26571  1.0000
  C   C73       1.0  0.36276  0.33363  0.23920  1.0000
  C   C74       1.0  0.64127  0.66881  0.25178  1.0000
  C   C75       1.0  0.86164  0.16526  0.25752  1.0000
  C   C76       1.0  0.36075  0.66382  0.26921  1.0000
  H   H37       1.0  0.31202  0.24130  0.15058  1.0000
  H   H38       1.0  0.19538  0.25780  0.32924  1.0000
  Cu  Cu1       1.0  0.50266  0.50061  0.24658  1.0000
  Cu  Cu2       1.0  0.00188  0.00009  0.24688  1.0000
  C   C77       1.0  0.30401  0.68808  0.25596  1.0000
  H   H39       1.0  0.29463  0.65901  0.23606  1.0000
  C   C78       1.0  0.80639  0.19513  0.21651  1.0000
  H   H40       1.0  0.79722  0.17031  0.16824  1.0000
  C   C79       1.0  0.70012  0.30923  0.26373  1.0000
  H   H41       1.0  0.70915  0.33438  0.30944  1.0000
  C   C80       1.0  0.19793  0.80696  0.25892  1.0000
  H   H42       1.0  0.20731  0.83352  0.29654  1.0000
  C   C81       1.0  0.69701  0.69470  0.23794  1.0000
  H   H43       1.0  0.70659  0.66544  0.22196  1.0000
  C   C82       1.0  0.20044  0.19047  0.22527  1.0000
  H   H44       1.0  0.20922  0.16287  0.19479  1.0000
  C   C83       1.0  0.30698  0.30687  0.26184  1.0000
  H   H45       1.0  0.29841  0.33249  0.30391  1.0000
  C   C84       1.0  0.80201  0.81508  0.24235  1.0000
  H   H46       1.0  0.79281  0.84704  0.22536  1.0000
  H   H47       1.0  0.26487  0.19054  0.13534  1.0000
  H   H48       1.0  0.24246  0.30732  0.34701  1.0000
  N   N5        1.0  0.33671  0.69383  0.28091  1.0000
  N   N6        1.0  0.83806  0.19601  0.26835  1.0000
  N   N7        1.0  0.66788  0.30610  0.22469  1.0000
  N   N8        1.0  0.16561  0.80311  0.22374  1.0000
  N   N9        1.0  0.66470  0.70010  0.25956  1.0000
  N   N10       1.0  0.16863  0.19500  0.25758  1.0000
  N   N11       1.0  0.33840  0.30383  0.22408  1.0000
  N   N12       1.0  0.83422  0.80533  0.26868  1.0000
  N   N13       1.0  0.00188  0.93987  0.24849  1.0000
  N   N14       1.0  0.50312  0.44048  0.24988  1.0000
  N   N15       1.0  0.00200  0.06001  0.24930  1.0000
  N   N16       1.0  0.50215  0.56074  0.24478  1.0000
  C   C85       1.0  0.22188  0.22017  0.75590  1.0000
  C   C86       1.0  0.27425  0.27739  0.77333  1.0000
  C   C87       1.0  0.28076  0.24460  0.71197  1.0000
  C   C88       1.0  0.21528  0.25319  0.81605  1.0000
  C   C89       1.0  0.25499  0.21632  0.70425  1.0000
  C   C90       1.0  0.24123  0.28119  0.82541  1.0000
  C   C91       1.0  0.96971  0.91452  0.75510  1.0000
  C   C92       1.0  0.46947  0.41462  0.76508  1.0000
  C   C93       1.0  0.02674  0.08506  0.71280  1.0000
  C   C94       1.0  0.52719  0.58590  0.73188  1.0000
  C   C95       1.0  0.02685  0.91500  0.73923  1.0000
  C   C96       1.0  0.52684  0.41466  0.76109  1.0000
  C   C97       1.0  0.96944  0.08474  0.71892  1.0000
  C   C98       1.0  0.46985  0.58594  0.73411  1.0000
  C   C99       1.0  0.97984  0.87464  0.74001  1.0000
  C   C100      1.0  0.48077  0.37256  0.78977  1.0000
  C   C101      1.0  0.01495  0.12678  0.66092  1.0000
  C   C102      1.0  0.51580  0.62810  0.70049  1.0000
  C   C103      1.0  0.01510  0.87460  0.73365  1.0000
  C   C104      1.0  0.51602  0.37261  0.78667  1.0000
  C   C105      1.0  0.97946  0.12657  0.66336  1.0000
  C   C106      1.0  0.48046  0.62811  0.70264  1.0000
  H   H49       1.0  0.96222  0.84969  0.73805  1.0000
  H   H50       1.0  0.46377  0.34632  0.81056  1.0000
  H   H51       1.0  0.03174  0.15259  0.62461  1.0000
  H   H52       1.0  0.53275  0.65432  0.67752  1.0000
  H   H53       1.0  0.03176  0.84930  0.72763  1.0000
  H   H54       1.0  0.53334  0.34628  0.80432  1.0000
  H   H55       1.0  0.96171  0.15233  0.62885  1.0000
  H   H56       1.0  0.46295  0.65426  0.68248  1.0000
  N   N17       1.0  0.44580  0.50015  0.75304  1.0000
  N   N18       1.0  0.94701  0.99817  0.77076  1.0000
  N   N19       1.0  0.55102  0.50015  0.74981  1.0000
  N   N20       1.0  0.05101  0.99898  0.74939  1.0000
  C   C107      1.0  0.42396  0.46753  0.75156  1.0000
  C   C108      1.0  0.92604  0.96411  0.79222  1.0000
  C   C109      1.0  0.57281  0.53278  0.75245  1.0000
  C   C110      1.0  0.07245  0.03139  0.75835  1.0000
  C   C111      1.0  0.57240  0.46737  0.74644  1.0000
  C   C112      1.0  0.07264  0.96590  0.75301  1.0000
  C   C113      1.0  0.42446  0.53307  0.75513  1.0000
  C   C114      1.0  0.92655  0.03002  0.78939  1.0000
  C   C115      1.0  0.38823  0.48067  0.74963  1.0000
  C   C116      1.0  0.89232  0.97433  0.83205  1.0000
  C   C117      1.0  0.60852  0.51974  0.75442  1.0000
  C   C118      1.0  0.10810  0.01748  0.77690  1.0000
  C   C119      1.0  0.60823  0.47994  0.74465  1.0000
  C   C120      1.0  0.10838  0.97781  0.76701  1.0000
  C   C121      1.0  0.38865  0.52060  0.75808  1.0000
  C   C122      1.0  0.89300  0.01474  0.83470  1.0000
  H   H57       1.0  0.36576  0.46193  0.74410  1.0000
  H   H58       1.0  0.87108  0.95313  0.85470  1.0000
  H   H59       1.0  0.63092  0.53851  0.76160  1.0000
  H   H60       1.0  0.13009  0.03594  0.79370  1.0000
  H   H61       1.0  0.63032  0.46090  0.73840  1.0000
  H   H62       1.0  0.13089  0.95852  0.76895  1.0000
  H   H63       1.0  0.36679  0.53990  0.76492  1.0000
  H   H64       1.0  0.87286  0.03257  0.86580  1.0000
  C   C123      1.0  0.93565  0.92532  0.77681  1.0000
  C   C124      1.0  0.43437  0.42710  0.75747  1.0000
  C   C125      1.0  0.06187  0.07248  0.73728  1.0000
  C   C126      1.0  0.56230  0.57332  0.74502  1.0000
  C   C127      1.0  0.06192  0.92678  0.74172  1.0000
  C   C128      1.0  0.56173  0.42714  0.75071  1.0000
  C   C129      1.0  0.93564  0.07164  0.75541  1.0000
  C   C130      1.0  0.43511  0.57338  0.74764  1.0000
  C   C131      1.0  0.90824  0.89403  0.77966  1.0000
  C   C132      1.0  0.40745  0.39559  0.75649  1.0000
  C   C133      1.0  0.08883  0.89580  0.73599  1.0000
  C   C134      1.0  0.58836  0.39568  0.74630  1.0000
  C   C135      1.0  0.40854  0.60490  0.75195  1.0000
  C   C136      1.0  0.37957  0.39052  0.84655  1.0000
  C   C137      1.0  0.90950  0.85638  0.88001  1.0000
  C   C138      1.0  0.58397  0.36983  0.65369  1.0000
  C   C139      1.0  0.08658  0.87284  0.63392  1.0000
  C   C140      1.0  0.37866  0.61127  0.66117  1.0000
  C   C141      1.0  0.40938  0.36876  0.66707  1.0000
  C   C142      1.0  0.88116  0.90102  0.67577  1.0000
  C   C143      1.0  0.41305  0.63042  0.84556  1.0000
  C   C144      1.0  0.61830  0.38948  0.83676  1.0000
  C   C145      1.0  0.11665  0.88686  0.83677  1.0000
  H   H65       1.0  0.93011  0.85071  0.96193  1.0000
  H   H66       1.0  0.37874  0.40888  0.92309  1.0000
  H   H67       1.0  0.06569  0.87960  0.55342  1.0000
  H   H68       1.0  0.56112  0.37413  0.58205  1.0000
  H   H69       1.0  0.37603  0.59395  0.58157  1.0000
  H   H70       1.0  0.88094  0.92948  0.59484  1.0000
  H   H71       1.0  0.43043  0.37199  0.59556  1.0000
  H   H72       1.0  0.43568  0.62599  0.91807  1.0000
  H   H73       1.0  0.11754  0.90215  0.92194  1.0000
  H   H74       1.0  0.62114  0.40680  0.91618  1.0000
  C   C146      1.0  0.88477  0.82656  0.87598  1.0000
  C   C147      1.0  0.35433  0.36118  0.84479  1.0000
  C   C148      1.0  0.11074  0.84220  0.63420  1.0000
  C   C149      1.0  0.60841  0.33977  0.65079  1.0000
  C   C150      1.0  0.35383  0.64072  0.66612  1.0000
  C   C151      1.0  0.85587  0.87160  0.67281  1.0000
  C   C152      1.0  0.38465  0.33866  0.66710  1.0000
  C   C153      1.0  0.38873  0.66065  0.84870  1.0000
  C   C154      1.0  0.14173  0.85751  0.83403  1.0000
  C   C155      1.0  0.64326  0.36015  0.83211  1.0000
  H   H75       1.0  0.88568  0.79753  0.95377  1.0000
  H   H76       1.0  0.33412  0.35731  0.92006  1.0000
  H   H77       1.0  0.10873  0.82432  0.55605  1.0000
  H   H78       1.0  0.60485  0.32047  0.57734  1.0000
  H   H79       1.0  0.33191  0.64642  0.59003  1.0000
  H   H80       1.0  0.83580  0.87672  0.58885  1.0000
  H   H81       1.0  0.38631  0.31836  0.59687  1.0000
  H   H82       1.0  0.39232  0.67990  0.92224  1.0000
  H   H83       1.0  0.16215  0.85021  0.91652  1.0000
  H   H84       1.0  0.66505  0.35490  0.90849  1.0000
  C   C156      1.0  0.85723  0.83400  0.77371  1.0000
  C   C157      1.0  0.35603  0.33508  0.75261  1.0000
  C   C158      1.0  0.13951  0.83505  0.73039  1.0000
  C   C159      1.0  0.63918  0.33523  0.73629  1.0000
  C   C160      1.0  0.35800  0.66526  0.76312  1.0000
  H   H85       1.0  0.30617  0.24226  0.67071  1.0000
  H   H86       1.0  0.18966  0.25588  0.85479  1.0000
  Cu  Cu3       1.0  0.49839  0.50008  0.75200  1.0000
  Cu  Cu4       1.0  0.99895  0.99875  0.75393  1.0000
  C   C161      1.0  0.30122  0.68966  0.74829  1.0000
  H   H87       1.0  0.29180  0.66146  0.72152  1.0000
  C   C162      1.0  0.79999  0.18850  0.75145  1.0000
  H   H88       1.0  0.78912  0.15943  0.73713  1.0000
  C   C163      1.0  0.69609  0.31068  0.75140  1.0000
  H   H89       1.0  0.70569  0.33872  0.77883  1.0000
  C   C164      1.0  0.19578  0.80843  0.76147  1.0000
  H   H90       1.0  0.20457  0.83418  0.80485  1.0000
  C   C165      1.0  0.69472  0.69235  0.75190  1.0000
  H   H91       1.0  0.70460  0.66276  0.73951  1.0000
  C   C166      1.0  0.19558  0.18982  0.74550  1.0000
  H   H92       1.0  0.20510  0.16254  0.71508  1.0000
  C   C167      1.0  0.30051  0.30777  0.78263  1.0000
  H   H93       1.0  0.29203  0.33332  0.82518  1.0000
  C   C168      1.0  0.80042  0.81230  0.75645  1.0000
  H   H94       1.0  0.79120  0.84388  0.74759  1.0000
  H   H95       1.0  0.25990  0.19128  0.65519  1.0000
  H   H96       1.0  0.23645  0.30628  0.87423  1.0000
  N   N21       1.0  0.33379  0.69497  0.77617  1.0000
  N   N22       1.0  0.83302  0.19356  0.76806  1.0000
  N   N23       1.0  0.66352  0.30560  0.72348  1.0000
  N   N24       1.0  0.16394  0.80551  0.71780  1.0000
  N   N25       1.0  0.66216  0.69819  0.76756  1.0000
  N   N26       1.0  0.16330  0.19431  0.77126  1.0000
  N   N27       1.0  0.33161  0.30511  0.74091  1.0000
  N   N28       1.0  0.83295  0.80289  0.77415  1.0000
  N   N29       1.0  0.99864  0.93905  0.75165  1.0000
  N   N30       1.0  0.49806  0.43992  0.75243  1.0000
  N   N31       1.0  0.99858  0.05955  0.74044  1.0000
  N   N32       1.0  0.49864  0.56055  0.74658  1.0000
  C  Sn1       1.0  0.13023  0.10436  0.69289  1.0000
  C   C169      1.0  0.09836  0.09885  0.75642  1.0000
  C  Sn2       1.0  0.08442  0.12960  0.81130  1.0000
  C  Sn3       1.0  0.10269  0.16665  0.80244  1.0000
  C   C170      1.0  0.13453  0.17214  0.73893  1.0000
  C  Sn4       1.0  0.14850  0.14140  0.68403  1.0000
  O  Te1       1.0  0.14368  0.07320  0.63873  1.0000
  O  Te2       1.0  0.05253  0.12338  0.87436  1.0000
  O  Te3       1.0  0.08921  0.19781  0.85667  1.0000
  O  Te4       1.0  0.18036  0.14761  0.62098  1.0000
  Mg  Mg1       1.0  0.04489  0.17490  0.93262  1.0000
  Mg  Mg2       1.0  0.18801  0.09612  0.56263  1.0000
  C  Sn5       1.0  0.23555  0.72515  0.66132  1.0000
  C   C171      1.0  0.27031  0.72497  0.70893  1.0000
  C  Sn6       1.0  0.28130  0.75085  0.79358  1.0000
  C  Sn7       1.0  0.25702  0.77745  0.83153  1.0000
  C   C172      1.0  0.22229  0.77761  0.78396  1.0000
  C  Sn8       1.0  0.21128  0.75175  0.69927  1.0000
  O  Te5       1.0  0.22515  0.69902  0.57680  1.0000
  O  Te6       1.0  0.31619  0.75014  0.83985  1.0000
  O  Te7       1.0  0.26746  0.80359  0.91612  1.0000
  O  Te8       1.0  0.17641  0.75245  0.65304  1.0000
  Mg  Mg3       1.0  0.31776  0.79142  0.95298  1.0000
  Mg  Mg4       1.0  0.17481  0.71117  0.53997  1.0000
  C  Sn9       1.0  0.76597  0.28811  0.73604  1.0000
  C   C173      1.0  0.73002  0.28478  0.71650  1.0000
  C  Sn10      1.0  0.71498  0.24655  0.72519  1.0000
  C  Sn11      1.0  0.73630  0.21090  0.75411  1.0000
  C   C174      1.0  0.77223  0.21423  0.77366  1.0000
  C  Sn12      1.0  0.78730  0.25245  0.76496  1.0000
  O  Te9       1.0  0.78046  0.32664  0.72688  1.0000
  O  Te10      1.0  0.67897  0.24400  0.70522  1.0000
  O  Te11      1.0  0.72179  0.17235  0.76326  1.0000
  O  Te12      1.0  0.82328  0.25501  0.78494  1.0000
  Mg  Mg5       1.0  0.67147  0.18463  0.72811  1.0000
  Mg  Mg6       1.0  0.83081  0.31436  0.76214  1.0000
  C  Sn13      1.0  0.13713  0.85870  0.36389  1.0000
  C   C175      1.0  0.13755  0.83148  0.27701  1.0000
  C  Sn14      1.0  0.11608  0.83834  0.15539  1.0000
  C  Sn15      1.0  0.09374  0.87314  0.11980  1.0000
  C   C176      1.0  0.09333  0.90033  0.20663  1.0000
  C  Sn16      1.0  0.11478  0.89350  0.32829  1.0000
  O  Te13      1.0  0.15881  0.85124  0.48496  1.0000
  O  Te14      1.0  0.11696  0.81070  0.07020  1.0000
  O  Te15      1.0  0.08434  0.81037  0.99861  1.0000
  O  Te16      1.0  0.11392  0.92112  0.41343  1.0000
  Mg  Mg7       1.0  0.09487  0.76388  0.91621  1.0000
  Mg  Mg8       1.0  0.14829  0.89776  0.56741  1.0000
  C  Sn17      1.0  0.87124  0.11278  0.65357  1.0000
  C   C177      1.0  0.90510  0.10992  0.71275  1.0000
  C  Sn18      1.0  0.91461  0.13193  0.81176  1.0000
  C  Sn19      1.0  0.88976  0.15731  0.85254  1.0000
  C   C178      1.0  0.85592  0.16015  0.79340  1.0000
  C  Sn20      1.0  0.84638  0.13815  0.69435  1.0000
  O  Te17      1.0  0.86230  0.09050  0.55478  1.0000
  O  Te18      1.0  0.94863  0.12859  0.86943  1.0000
  O  Te19      1.0  0.89872  0.17959  0.95141  1.0000
  O  Te20      1.0  0.81239  0.14148  0.63672  1.0000
  Mg  Mg9       1.0  0.93598  0.23516  0.00011  1.0000
  Mg  Mg10      1.0  0.81272  0.10513  0.50609  1.0000
  C  Sn21      1.0  0.71518  0.77523  0.71671  1.0000
  C   C179      1.0  0.71926  0.73405  0.71576  1.0000
  C  Sn22      1.0  0.75184  0.71495  0.74599  1.0000
  C  Sn23      1.0  0.78095  0.73746  0.77793  1.0000
  C   C180      1.0  0.77686  0.77860  0.77890  1.0000
  C  Sn24      1.0  0.74429  0.79774  0.74865  1.0000
  O  Te21      1.0  0.68237  0.79371  0.68618  1.0000
  O  Te22      1.0  0.75528  0.67375  0.74433  1.0000
  O  Te23      1.0  0.81378  0.71894  0.80846  1.0000
  O  Te24      1.0  0.74085  0.83890  0.75032  1.0000
  Mg  Mg11      1.0  0.80530  0.66217  0.79301  1.0000
  Mg  Mg12      1.0  0.69083  0.85051  0.70173  1.0000
  C  Sn25      1.0  0.63824  0.35804  0.37734  1.0000
  C   C181      1.0  0.63878  0.33215  0.28595  1.0000
  C  Sn26      1.0  0.61787  0.34073  0.16267  1.0000
  C  Sn27      1.0  0.59599  0.37595  0.12999  1.0000
  C   C182      1.0  0.59547  0.40182  0.22134  1.0000
  C  Sn28      1.0  0.61636  0.39326  0.34467  1.0000
  O  Te25      1.0  0.65935  0.34887  0.50000  1.0000
  O  Te26      1.0  0.61885  0.31438  0.07296  1.0000
  O  Te27      1.0  0.57487  0.38510  0.00722  1.0000
  O  Te28      1.0  0.61540  0.41959  0.43433  1.0000
  Mg  Mg13      1.0  0.59761  0.26971  0.91839  1.0000
  Mg  Mg14      1.0  0.64892  0.39408  0.58889  1.0000
  C  Sn29      1.0  0.74230  0.23521  0.12393  1.0000
  C   C183      1.0  0.77640  0.23276  0.18053  1.0000
  C  Sn30      1.0  0.78565  0.25263  0.28578  1.0000
  C  Sn31      1.0  0.76028  0.27540  0.33557  1.0000
  C   C184      1.0  0.72621  0.27783  0.27900  1.0000
  C  Sn32      1.0  0.71693  0.25798  0.17372  1.0000
  O  Te29      1.0  0.73364  0.21510  0.01879  1.0000
  O  Te30      1.0  0.81991  0.24975  0.34071  1.0000
  O  Te31      1.0  0.76898  0.29551  0.44079  1.0000
  O  Te32      1.0  0.68270  0.26084  0.11882  1.0000
  Mg  Mg15      1.0  0.81902  0.28249  0.48251  1.0000
  Mg  Mg16      1.0  0.69584  0.15788  0.97707  1.0000
  C  Sn33      1.0  0.71682  0.77754  0.20346  1.0000
  C   C185      1.0  0.72116  0.73653  0.20073  1.0000
  C  Sn34      1.0  0.75394  0.71783  0.22824  1.0000
  C  Sn35      1.0  0.78299  0.74058  0.25920  1.0000
  C   C186      1.0  0.77864  0.78156  0.26195  1.0000
  C  Sn36      1.0  0.74587  0.80029  0.23443  1.0000
  O  Te33      1.0  0.68381  0.79561  0.17564  1.0000
  O  Te34      1.0  0.75764  0.67680  0.22485  1.0000
  O  Te35      1.0  0.81602  0.72247  0.28703  1.0000
  O  Te36      1.0  0.74217  0.84129  0.23782  1.0000
  Mg  Mg17      1.0  0.80787  0.66578  0.27001  1.0000
  Mg  Mg18      1.0  0.69195  0.85233  0.19276  1.0000
  C  Sn37      1.0  0.27942  0.75740  0.33815  1.0000
  C   C187      1.0  0.27669  0.72111  0.29337  1.0000
  C  Sn38      1.0  0.24757  0.71411  0.21279  1.0000
  C  Sn39      1.0  0.22063  0.74400  0.17612  1.0000
  C   C188      1.0  0.22337  0.78026  0.22087  1.0000
  C  Sn40      1.0  0.25248  0.78730  0.30148  1.0000
  O  Te37      1.0  0.30876  0.76376  0.41862  1.0000
  O  Te38      1.0  0.24542  0.67759  0.16928  1.0000
  O  Te39      1.0  0.19127  0.73761  0.09559  1.0000
  O  Te40      1.0  0.25464  0.82379  0.34496  1.0000
  Mg  Mg19      1.0  0.20030  0.68306  0.06135  1.0000
  Mg  Mg20      1.0  0.29975  0.81836  0.45282  1.0000
  C  Sn41      1.0  0.11669  0.14624  0.37345  1.0000
  C   C189      1.0  0.14305  0.15822  0.28026  1.0000
  C  Sn42      1.0  0.14271  0.14573  0.15510  1.0000
  C  Sn43      1.0  0.11544  0.12077  0.12235  1.0000
  C   C190      1.0  0.08910  0.10881  0.21550  1.0000
  C  Sn44      1.0  0.08942  0.12128  0.34070  1.0000
  O  Te41      1.0  0.11754  0.15909  0.49797  1.0000
  O  Te42      1.0  0.16936  0.15808  0.06360  1.0000
  O  Te43      1.0  0.12689  0.03771  0.99771  1.0000
  O  Te44      1.0  0.06278  0.10895  0.43215  1.0000
  Mg  Mg21      1.0  0.16903  0.06251  0.90687  1.0000
  Mg  Mg22      1.0  0.07537  0.13430  0.58887  1.0000
  C  Sn45      1.0  0.58328  0.64700  0.81511  1.0000
  C   C191      1.0  0.58369  0.61710  0.73843  1.0000
  C  Sn46      1.0  0.61368  0.60996  0.67341  1.0000
  C  Sn47      1.0  0.64391  0.63317  0.68535  1.0000
  C   C192      1.0  0.64350  0.66305  0.76201  1.0000
  C  Sn48      1.0  0.61350  0.67021  0.82705  1.0000
  O  Te45      1.0  0.55300  0.65362  0.87925  1.0000
  O  Te46      1.0  0.61346  0.57991  0.59727  1.0000
  O  Te47      1.0  0.67420  0.62653  0.62112  1.0000
  O  Te48      1.0  0.61372  0.70024  0.90317  1.0000
  Mg  Mg23      1.0  0.66107  0.58221  0.52889  1.0000
  Mg  Mg24      1.0  0.56614  0.69795  0.97165  1.0000
