data_image0
_chemical_formula_structural       NOC2HCHC2HCHNONONOC2HCHC2HCHNOC2HCHC2HCHNOC2HCHC2HCHNONOSi2SnCSn2CSnTe4Mg2SnCSn2CSnTe4Mg2SnCSn2CSnTe4Mg2SnCSn2CSnTe4Mg2
_chemical_formula_sum              "N8 O8 C32 H16 Si2 Sn16 Te16 Mg8"
_cell_length_a       13.79
_cell_length_b       13.5574
_cell_length_c       8.56957
_cell_angle_alpha    89.7042
_cell_angle_beta     89.3139
_cell_angle_gamma    89.8041

_symmetry_space_group_name_H-M    'P1'
_space_group_IT_number       1

loop_
  _space_group_symop_operation_xyz
  'x, y, z'

loop_
  _atom_site_type_symbol
  _atom_site_label
  _atom_site_symmetry_multiplicity
  _atom_site_fract_x
  _atom_site_fract_y
  _atom_site_fract_z
  _atom_site_occupancy
  N   N1        1.0  0.77924  0.72443  0.56694  1.0000
  O   O1        1.0  0.72692  0.65960  0.63553  1.0000
  C   C1        1.0  0.07217  0.09215  0.89034  1.0000
  C   C2        1.0  0.13235  0.06644  0.76239  1.0000
  H   H1        1.0  0.13637  0.99031  0.72245  1.0000
  C   C3        1.0  0.18739  0.13818  0.68546  1.0000
  H   H2        1.0  0.23385  0.12081  0.58572  1.0000
  C   C4        1.0  0.18102  0.23665  0.73435  1.0000
  C   C5        1.0  0.12075  0.26399  0.86001  1.0000
  H   H3        1.0  0.11785  0.34113  0.89362  1.0000
  C   C6        1.0  0.06770  0.19178  0.93779  1.0000
  H   H4        1.0  0.02195  0.21235  0.03686  1.0000
  N   N2        1.0  0.24099  0.30543  0.65125  1.0000
  O   O2        1.0  0.22874  0.39320  0.68686  1.0000
  N   N3        1.0  0.72086  0.22232  0.42504  1.0000
  O   O3        1.0  0.65934  0.27896  0.35872  1.0000
  N   N4        1.0  0.27784  0.76290  0.41951  1.0000
  O   O4        1.0  0.34258  0.71011  0.35203  1.0000
  C   C7        1.0  0.44044  0.58563  0.86806  1.0000
  C   C8        1.0  0.39451  0.54604  0.73654  1.0000
  H   H5        1.0  0.39864  0.46731  0.71330  1.0000
  C   C9        1.0  0.34109  0.60500  0.63536  1.0000
  H   H6        1.0  0.30551  0.57262  0.53564  1.0000
  C   C10       1.0  0.33326  0.70572  0.66786  1.0000
  C   C11       1.0  0.37714  0.74738  0.79801  1.0000
  H   H7        1.0  0.36737  0.82569  0.81951  1.0000
  C   C12       1.0  0.43119  0.68714  0.89691  1.0000
  H   H8        1.0  0.46558  0.71925  0.99838  1.0000
  N   N5        1.0  0.27242  0.77065  0.57703  1.0000
  O   O5        1.0  0.21945  0.83499  0.64587  1.0000
  C   C13       1.0  0.57345  0.40954  0.88014  1.0000
  C   C14       1.0  0.61388  0.44407  0.73828  1.0000
  H   H9        1.0  0.60687  0.52134  0.70513  1.0000
  C   C15       1.0  0.66253  0.38118  0.63591  1.0000
  H   H10       1.0  0.69126  0.40904  0.52591  1.0000
  C   C16       1.0  0.67202  0.28175  0.67773  1.0000
  C   C17       1.0  0.63664  0.24584  0.82062  1.0000
  H   H11       1.0  0.64857  0.16868  0.84982  1.0000
  C   C18       1.0  0.58683  0.30974  0.92025  1.0000
  H   H12       1.0  0.55798  0.28103  0.03005  1.0000
  N   N6        1.0  0.72500  0.21232  0.58257  1.0000
  O   O6        1.0  0.77191  0.14214  0.64725  1.0000
  C   C19       1.0  0.40790  0.43217  0.12210  1.0000
  C   C20       1.0  0.43351  0.36141  0.23604  1.0000
  H   H13       1.0  0.50919  0.34953  0.26658  1.0000
  C   C21       1.0  0.36224  0.30498  0.31024  1.0000
  H   H14       1.0  0.38019  0.24934  0.39725  1.0000
  C   C22       1.0  0.26431  0.32101  0.27510  1.0000
  C   C23       1.0  0.23704  0.39403  0.16772  1.0000
  H   H15       1.0  0.16024  0.40542  0.14629  1.0000
  C   C24       1.0  0.30861  0.44827  0.09102  1.0000
  H   H16       1.0  0.28768  0.50324  0.00472  1.0000
  N   N7        1.0  0.19652  0.25586  0.35036  1.0000
  O   O7        1.0  0.10963  0.27479  0.32698  1.0000
  N   N8        1.0  0.78337  0.73032  0.40885  1.0000
  O   O8        1.0  0.84774  0.78048  0.33581  1.0000
  Si  Si1       1.0  0.00204  0.99580  0.00206  1.0000
  Si  Si2       1.0  0.50341  0.49897  0.00462  1.0000
  C  Sn1       1.0  0.73485  0.64455  0.13124  1.0000
  C   C25       1.0  0.71480  0.69036  0.27379  1.0000
  C  Sn2       1.0  0.63034  0.66746  0.35780  1.0000
  C  Sn3       1.0  0.56457  0.59726  0.29814  1.0000
  C   C26       1.0  0.58465  0.55147  0.15570  1.0000
  C  Sn4       1.0  0.66909  0.57434  0.07159  1.0000
  O  Te1       1.0  0.81973  0.66857  0.04924  1.0000
  O  Te2       1.0  0.61184  0.71425  0.50001  1.0000
  O  Te3       1.0  0.47965  0.57326  0.38028  1.0000
  O  Te4       1.0  0.68018  0.52435  0.92947  1.0000
  Mg  Mg1       1.0  0.48652  0.65675  0.56860  1.0000
  Mg  Mg2       1.0  0.80549  0.58176  0.86083  1.0000
  C  Sn5       1.0  0.93135  0.08764  0.32521  1.0000
  C   C27       1.0  0.91122  0.04581  0.18050  1.0000
  C  Sn6       1.0  0.82711  0.07206  0.10086  1.0000
  C  Sn7       1.0  0.76178  0.14162  0.16720  1.0000
  C   C28       1.0  0.78192  0.18342  0.31181  1.0000
  C  Sn8       1.0  0.86601  0.15720  0.39154  1.0000
  O  Te5       1.0  0.01587  0.06031  0.40274  1.0000
  O  Te6       1.0  0.80110  0.02599  0.95637  1.0000
  O  Te7       1.0  0.67721  0.16893  0.08952  1.0000
  O  Te8       1.0  0.88461  0.20001  0.53593  1.0000
  Mg  Mg3       1.0  0.67637  0.08701  0.89574  1.0000
  Mg  Mg4       1.0  0.00933  0.13908  0.59662  1.0000
  C  Sn9       1.0  0.19703  0.87447  0.07893  1.0000
  C   C29       1.0  0.09929  0.89833  0.10240  1.0000
  C  Sn10      1.0  0.05648  0.88853  0.25020  1.0000
  C  Sn11      1.0  0.11255  0.85421  0.37723  1.0000
  C   C30       1.0  0.21023  0.83040  0.35374  1.0000
  C  Sn12      1.0  0.25310  0.84016  0.20596  1.0000
  O  Te9       1.0  0.23090  0.88161  0.93018  1.0000
  O  Te10      1.0  0.95863  0.91280  0.27078  1.0000
  O  Te11      1.0  0.07117  0.84385  0.52606  1.0000
  O  Te12      1.0  0.35090  0.81592  0.18536  1.0000
  Mg  Mg5       1.0  0.93522  0.88632  0.49549  1.0000
  Mg  Mg6       1.0  0.36696  0.83919  0.96073  1.0000
  C  Sn13      1.0  0.87363  0.94944  0.70324  1.0000
  C   C31       1.0  0.90758  0.92684  0.85226  1.0000
  C  Sn14      1.0  0.91353  0.82885  0.90252  1.0000
  C  Sn15      1.0  0.88502  0.75183  0.80170  1.0000
  C   C32       1.0  0.85112  0.77444  0.65277  1.0000
  C  Sn16      1.0  0.84512  0.87242  0.60242  1.0000
  O  Te13      1.0  0.87165  0.04793  0.65544  1.0000
  O  Te14      1.0  0.95510  0.81132  0.05203  1.0000
  O  Te15      1.0  0.89039  0.65329  0.84963  1.0000
  O  Te16      1.0  0.81103  0.89320  0.45300  1.0000
  Mg  Mg7       1.0  0.94910  0.66559  0.06380  1.0000
  Mg  Mg8       1.0  0.82040  0.03890  0.44108  1.0000
