data_image0
_chemical_formula_structural       C2HCHC2HCHNOC2HCHC2HCHNONOC2HCHC2HCHNONONONOC2HCHC2HCHNOSi2C2Sn2C2HTe2HMgC2Sn2C2HTe2HMgC2Sn2C2HTe2HMgC2Sn2C2HTe2HMg
_chemical_formula_sum              "C40 H24 N8 O8 Si2 Sn8 Te8 Mg4"
_cell_length_a       13.79
_cell_length_b       13.5574
_cell_length_c       8.56957
_cell_angle_alpha    89.7042
_cell_angle_beta     89.3139
_cell_angle_gamma    89.8041

_symmetry_space_group_name_H-M    'P1'
_space_group_IT_number       1

loop_
  _space_group_symop_operation_xyz
  'x, y, z'

loop_
  _atom_site_type_symbol
  _atom_site_label
  _atom_site_symmetry_multiplicity
  _atom_site_fract_x
  _atom_site_fract_y
  _atom_site_fract_z
  _atom_site_occupancy
  C   C1        1.0  0.93799  0.91305  0.86290  1.0000
  C   C2        1.0  0.90982  0.94723  0.71470  1.0000
  H   H1        1.0  0.92610  0.02252  0.67854  1.0000
  C   C3        1.0  0.85978  0.88711  0.61163  1.0000
  H   H2        1.0  0.83839  0.91541  0.49850  1.0000
  C   C4        1.0  0.83707  0.79069  0.65869  1.0000
  C   C5        1.0  0.86246  0.75523  0.80667  1.0000
  H   H3        1.0  0.84083  0.68100  0.83992  1.0000
  C   C6        1.0  0.91322  0.81609  0.90713  1.0000
  H   H4        1.0  0.93286  0.78797  0.02192  1.0000
  N   N1        1.0  0.77924  0.72443  0.56694  1.0000
  O   O1        1.0  0.72692  0.65960  0.63553  1.0000
  C   C7        1.0  0.07217  0.09215  0.89034  1.0000
  C   C8        1.0  0.13235  0.06644  0.76239  1.0000
  H   H5        1.0  0.13637  0.99031  0.72245  1.0000
  C   C9        1.0  0.18739  0.13818  0.68546  1.0000
  H   H6        1.0  0.23385  0.12081  0.58572  1.0000
  C   C10       1.0  0.18102  0.23665  0.73435  1.0000
  C   C11       1.0  0.12075  0.26399  0.86001  1.0000
  H   H7        1.0  0.11785  0.34113  0.89362  1.0000
  C   C12       1.0  0.06770  0.19178  0.93779  1.0000
  H   H8        1.0  0.02195  0.21235  0.03686  1.0000
  N   N2        1.0  0.24099  0.30543  0.65125  1.0000
  O   O2        1.0  0.22874  0.39320  0.68686  1.0000
  N   N3        1.0  0.72086  0.22232  0.42504  1.0000
  O   O3        1.0  0.65934  0.27896  0.35872  1.0000
  C   C13       1.0  0.08748  0.92369  0.12801  1.0000
  C   C14       1.0  0.05257  0.88200  0.26862  1.0000
  H   H9        1.0  0.97649  0.88941  0.30130  1.0000
  C   C15       1.0  0.11343  0.83062  0.36924  1.0000
  H   H10       1.0  0.08518  0.80004  0.47783  1.0000
  C   C16       1.0  0.21103  0.81960  0.32661  1.0000
  C   C17       1.0  0.24761  0.85735  0.18552  1.0000
  H   H11       1.0  0.32345  0.84483  0.15549  1.0000
  C   C18       1.0  0.18585  0.90996  0.08781  1.0000
  H   H12       1.0  0.21496  0.94051  0.97930  1.0000
  N   N4        1.0  0.27784  0.76290  0.41951  1.0000
  O   O4        1.0  0.34258  0.71011  0.35203  1.0000
  N   N5        1.0  0.27242  0.77065  0.57703  1.0000
  O   O5        1.0  0.21945  0.83499  0.64587  1.0000
  N   N6        1.0  0.72500  0.21232  0.58257  1.0000
  O   O6        1.0  0.77191  0.14214  0.64725  1.0000
  N   N7        1.0  0.19652  0.25586  0.35036  1.0000
  O   O7        1.0  0.10963  0.27479  0.32698  1.0000
  C   C19       1.0  0.58832  0.56738  0.13340  1.0000
  C   C20       1.0  0.55498  0.61137  0.27274  1.0000
  H   H13       1.0  0.47919  0.60562  0.30864  1.0000
  C   C21       1.0  0.61767  0.66358  0.36797  1.0000
  H   H14       1.0  0.59128  0.69635  0.47569  1.0000
  C   C22       1.0  0.71496  0.67264  0.32190  1.0000
  C   C23       1.0  0.74965  0.63228  0.18213  1.0000
  H   H15       1.0  0.82528  0.64295  0.14944  1.0000
  C   C24       1.0  0.68625  0.57927  0.08933  1.0000
  H   H16       1.0  0.71340  0.54663  0.98143  1.0000
  N   N8        1.0  0.78337  0.73032  0.40885  1.0000
  O   O8        1.0  0.84774  0.78048  0.33581  1.0000
  Si  Si1       1.0  0.00204  0.99580  0.00206  1.0000
  Si  Si2       1.0  0.50341  0.49897  0.00462  1.0000
  C   C25       1.0  0.42370  0.71262  0.88493  1.0000
  C   C26       1.0  0.43647  0.61033  0.88297  1.0000
  C  Sn1       1.0  0.39771  0.55431  0.76253  1.0000
  C  Sn2       1.0  0.34526  0.60179  0.64194  1.0000
  C   C27       1.0  0.33295  0.70417  0.64489  1.0000
  C   C28       1.0  0.37201  0.75951  0.76600  1.0000
  H   H17       1.0  0.45397  0.75546  0.97858  1.0000
  O  Te1       1.0  0.41111  0.45218  0.76239  1.0000
  O  Te2       1.0  0.30579  0.54758  0.52013  1.0000
  H   H18       1.0  0.36217  0.83871  0.76743  1.0000
  Mg  Mg1       1.0  0.34348  0.41023  0.57135  1.0000
  C   C29       1.0  0.65149  0.40606  0.64285  1.0000
  C   C30       1.0  0.67652  0.30695  0.66379  1.0000
  C  Sn3       1.0  0.64605  0.25608  0.79774  1.0000
  C  Sn4       1.0  0.58946  0.30555  0.91264  1.0000
  C   C31       1.0  0.56474  0.40470  0.89054  1.0000
  C   C32       1.0  0.59564  0.45491  0.75609  1.0000
  H   H19       1.0  0.67534  0.44490  0.53879  1.0000
  O  Te3       1.0  0.67173  0.15708  0.81683  1.0000
  O  Te4       1.0  0.56545  0.25971  0.04759  1.0000
  H   H20       1.0  0.57620  0.53163  0.73987  1.0000
  Mg  Mg2       1.0  0.61902  0.12511  0.02057  1.0000
  C   C33       1.0  0.28242  0.44129  0.09434  1.0000
  C   C34       1.0  0.38260  0.44124  0.11704  1.0000
  C  Sn5       1.0  0.42441  0.37506  0.22233  1.0000
  C  Sn6       1.0  0.36464  0.30777  0.30625  1.0000
  C   C35       1.0  0.26450  0.30837  0.28262  1.0000
  C   C36       1.0  0.22341  0.37492  0.17702  1.0000
  H   H21       1.0  0.25062  0.49275  0.01258  1.0000
  O  Te5       1.0  0.52463  0.37602  0.24364  1.0000
  O  Te6       1.0  0.40453  0.24082  0.41215  1.0000
  H   H22       1.0  0.14585  0.37491  0.15940  1.0000
  Mg  Mg3       1.0  0.54492  0.27059  0.40087  1.0000
  C   C37       1.0  0.90878  0.14123  0.36776  1.0000
  C   C38       1.0  0.81220  0.16867  0.34484  1.0000
  C  Sn7       1.0  0.76294  0.13664  0.21300  1.0000
  C  Sn8       1.0  0.81145  0.07600  0.10226  1.0000
  C   C39       1.0  0.90806  0.04889  0.12631  1.0000
  C   C40       1.0  0.95667  0.08138  0.25863  1.0000
  H   H23       1.0  0.94638  0.16632  0.47017  1.0000
  O  Te7       1.0  0.66647  0.16478  0.19188  1.0000
  O  Te8       1.0  0.75651  0.03968  0.96949  1.0000
  H   H24       1.0  0.03143  0.06007  0.27638  1.0000
  Mg  Mg4       1.0  0.62522  0.09779  0.99242  1.0000
