data_image0
_chemical_formula_structural       C2HCHC2HCHNONOC2HCHC2HCHNOC2HCHC2HCHNONONOC2HCHC2HCHNONOC4Sn2C2HTe2HMgC2Sn2C2HTe2HMgC2Sn2C2HTe2HMgC2Sn2C2HTe2HMg
_chemical_formula_sum              "C42 H24 N8 O8 Sn8 Te8 Mg4"
_cell_length_a       13.1984
_cell_length_b       13.4367
_cell_length_c       7.88268
_cell_angle_alpha    89.903
_cell_angle_beta     90.0549
_cell_angle_gamma    90.1054

_symmetry_space_group_name_H-M    'P1'
_space_group_IT_number       1

loop_
  _space_group_symop_operation_xyz
  'x, y, z'

loop_
  _atom_site_type_symbol
  _atom_site_label
  _atom_site_symmetry_multiplicity
  _atom_site_fract_x
  _atom_site_fract_y
  _atom_site_fract_z
  _atom_site_occupancy
  C   C1        1.0  0.05156  0.92045  0.88282  1.0000
  C   C2        1.0  0.10966  0.95293  0.74353  1.0000
  H   H1        1.0  0.11677  0.03183  0.71577  1.0000
  C   C3        1.0  0.15930  0.88601  0.63832  1.0000
  H   H2        1.0  0.20400  0.91306  0.53221  1.0000
  C   C4        1.0  0.15084  0.78415  0.67212  1.0000
  C   C5        1.0  0.09257  0.74956  0.80745  1.0000
  H   H3        1.0  0.08705  0.67002  0.83078  1.0000
  C   C6        1.0  0.04252  0.81787  0.91083  1.0000
  H   H4        1.0  0.99590  0.79002  0.01393  1.0000
  N   N1        1.0  0.20891  0.71184  0.57878  1.0000
  O   O1        1.0  0.25229  0.64032  0.65725  1.0000
  N   N2        1.0  0.78441  0.28366  0.57949  1.0000
  O   O2        1.0  0.73156  0.34814  0.65866  1.0000
  C   C7        1.0  0.92265  0.94712  0.11401  1.0000
  C   C8        1.0  0.95827  0.89554  0.25771  1.0000
  H   H5        1.0  0.03876  0.89397  0.28599  1.0000
  C   C9        1.0  0.89314  0.84366  0.36448  1.0000
  H   H6        1.0  0.92332  0.80396  0.47335  1.0000
  C   C10       1.0  0.78938  0.84341  0.32722  1.0000
  C   C11       1.0  0.75217  0.89298  0.18430  1.0000
  H   H7        1.0  0.67148  0.88981  0.15788  1.0000
  C   C12       1.0  0.81881  0.94470  0.07856  1.0000
  H   H8        1.0  0.78929  0.98256  0.96710  1.0000
  N   N3        1.0  0.71717  0.78625  0.42385  1.0000
  O   O3        1.0  0.64108  0.74649  0.34983  1.0000
  C   C13       1.0  0.07962  0.05210  0.11137  1.0000
  C   C14       1.0  0.04499  0.10056  0.25842  1.0000
  H   H9        1.0  0.96503  0.09917  0.29059  1.0000
  C   C15       1.0  0.10991  0.15259  0.36518  1.0000
  H   H10       1.0  0.08010  0.18961  0.47654  1.0000
  C   C16       1.0  0.21300  0.15657  0.32434  1.0000
  C   C17       1.0  0.24962  0.11038  0.17833  1.0000
  H   H11       1.0  0.32962  0.11707  0.14802  1.0000
  C   C18       1.0  0.18322  0.05782  0.07344  1.0000
  H   H12       1.0  0.21346  0.02183  0.96123  1.0000
  N   N4        1.0  0.28429  0.21407  0.42222  1.0000
  O   O4        1.0  0.35861  0.25773  0.34963  1.0000
  N   N5        1.0  0.72980  0.77917  0.59406  1.0000
  O   O5        1.0  0.79312  0.83319  0.67505  1.0000
  N   N6        1.0  0.27291  0.21836  0.59241  1.0000
  O   O6        1.0  0.21226  0.16197  0.67486  1.0000
  C   C19       1.0  0.42111  0.55308  0.11401  1.0000
  C   C20       1.0  0.45315  0.59814  0.26612  1.0000
  H   H13       1.0  0.53190  0.59350  0.30545  1.0000
  C   C21       1.0  0.38669  0.65072  0.36951  1.0000
  H   H14       1.0  0.41418  0.68455  0.48586  1.0000
  C   C22       1.0  0.28571  0.66016  0.31822  1.0000
  C   C23       1.0  0.25173  0.61726  0.16776  1.0000
  H   H15       1.0  0.17328  0.62759  0.12966  1.0000
  C   C24       1.0  0.31888  0.56282  0.06806  1.0000
  H   H16       1.0  0.29004  0.52894  0.95287  1.0000
  N   N7        1.0  0.21469  0.72200  0.40858  1.0000
  O   O7        1.0  0.15738  0.78165  0.32617  1.0000
  N   N8        1.0  0.78809  0.28214  0.40796  1.0000
  O   O8        1.0  0.85453  0.23224  0.32662  1.0000
  C   C25       1.0  0.00042  0.99905  0.99730  1.0000
  C   C26       1.0  0.49949  0.49924  0.99956  1.0000
  C   C27       1.0  0.64126  0.58660  0.63513  1.0000
  C   C28       1.0  0.65963  0.68806  0.65920  1.0000
  C  Sn1       1.0  0.62910  0.73469  0.80891  1.0000
  C  Sn2       1.0  0.57929  0.67851  0.93667  1.0000
  C   C29       1.0  0.56133  0.57704  0.91142  1.0000
  C   C30       1.0  0.59217  0.53112  0.76111  1.0000
  H   H17       1.0  0.66517  0.55105  0.51888  1.0000
  O  Te1       1.0  0.64802  0.83613  0.83087  1.0000
  O  Te2       1.0  0.54743  0.72424  0.08753  1.0000
  H   H18       1.0  0.57800  0.45255  0.74256  1.0000
  Mg  Mg1       1.0  0.59032  0.86450  0.05829  1.0000
  C   C31       1.0  0.55012  0.37902  0.29646  1.0000
  C   C32       1.0  0.56872  0.43713  0.15259  1.0000
  C  Sn3       1.0  0.66642  0.44353  0.08533  1.0000
  C  Sn4       1.0  0.74682  0.39068  0.16380  1.0000
  C   C33       1.0  0.72741  0.33269  0.30762  1.0000
  C   C34       1.0  0.62937  0.32683  0.37390  1.0000
  H   H19       1.0  0.47425  0.37443  0.34771  1.0000
  O  Te3       1.0  0.68426  0.50096  0.94155  1.0000
  O  Te4       1.0  0.84518  0.39573  0.09917  1.0000
  H   H20       1.0  0.61497  0.28178  0.48523  1.0000
  Mg  Mg2       1.0  0.83132  0.48427  0.90089  1.0000
  C   C35       1.0  0.43270  0.29445  0.91841  1.0000
  C   C36       1.0  0.45116  0.39589  0.89381  1.0000
  C  Sn5       1.0  0.40467  0.44669  0.76005  1.0000
  C  Sn6       1.0  0.33848  0.39477  0.64909  1.0000
  C   C37       1.0  0.32045  0.29330  0.67485  1.0000
  C   C38       1.0  0.36740  0.24319  0.80906  1.0000
  H   H21       1.0  0.46840  0.25668  0.02230  1.0000
  O  Te5       1.0  0.42398  0.54804  0.73726  1.0000
  O  Te6       1.0  0.29099  0.44372  0.51443  1.0000
  H   H22       1.0  0.35304  0.16466  0.82814  1.0000
  Mg  Mg3       1.0  0.34134  0.58206  0.53552  1.0000
  C   C39       1.0  0.86471  0.08776  0.62759  1.0000
  C   C40       1.0  0.84045  0.18751  0.65630  1.0000
  C  Sn7       1.0  0.87382  0.23526  0.80347  1.0000
  C  Sn8       1.0  0.93258  0.18197  0.92388  1.0000
  C   C41       1.0  0.95650  0.08222  0.89392  1.0000
  C   C42       1.0  0.92269  0.03516  0.74625  1.0000
  H   H23       1.0  0.83860  0.05135  0.51330  1.0000
  O  Te7       1.0  0.84887  0.33495  0.83020  1.0000
  O  Te8       1.0  0.96637  0.22888  0.07201  1.0000
  H   H24       1.0  0.94341  0.95794  0.72400  1.0000
  Mg  Mg4       1.0  0.91272  0.36589  0.05140  1.0000
