data_image0
_chemical_formula_structural       C4H4C8H8C8H8C4H4C4H4C2NC2NCH2C2NC2NCH2NC8NCH6C2NC2NCH2C2NC2NC3H2C2NC2NC3H2C4H4C4H4C4H4C4H4C4H4NC8NCH6NC8NC3H6NC2NC3H2NC8NC3H6NC8NC3H6NC8NC3H6SnCSn2CSnTe4Mg2SnCSn2CSnTe4Mg2SnCSn2CSnTe4Mg2SnCSn2CSnTe4Mg2SnCSn2CSnTe4Mg2SnCSn2CSnTe4Mg2SnCSn2CSnTe4Mg2SnCSn2CSnTe4Mg2SnCSn2CSnTe4Mg2SnCSn2CSnTe4Mg2SnCSn2CSnTe4Mg2SnCSn2CSnTe4Mg2SnCSn2CSnTe4Mg2SnCSn2CSnTe4Mg2SnCSn2CSnTe4Mg2SnCSn2CSnTe4Mg2SnCSn2CSnTe4Mg2SnCSn2CSnTe4Mg2
_chemical_formula_sum              "C180 H96 N24 Sn72 Te72 Mg36"
_cell_length_a       38.5696
_cell_length_b       38.6334
_cell_length_c       9.66315
_cell_angle_alpha    89.2241
_cell_angle_beta     91.4641
_cell_angle_gamma    119.951

_symmetry_space_group_name_H-M    'P1'
_space_group_IT_number       1

loop_
  _space_group_symop_operation_xyz
  'x, y, z'

loop_
  _atom_site_type_symbol
  _atom_site_label
  _atom_site_symmetry_multiplicity
  _atom_site_fract_x
  _atom_site_fract_y
  _atom_site_fract_z
  _atom_site_occupancy
  C   C1        1.0  0.55844  0.96899  0.32949  1.0000
  C   C2        1.0  0.56475  0.93658  0.32796  1.0000
  C   C3        1.0  0.51297  0.90538  0.15002  1.0000
  C   C4        1.0  0.50726  0.93804  0.15178  1.0000
  H   H1        1.0  0.57596  0.99367  0.40015  1.0000
  H   H2        1.0  0.58679  0.93540  0.39719  1.0000
  H   H3        1.0  0.49657  0.88150  0.07542  1.0000
  H   H4        1.0  0.48534  0.93917  0.08227  1.0000
  C   C5        1.0  0.03219  0.58820  0.32321  1.0000
  C   C6        1.0  0.06421  0.62719  0.32367  1.0000
  C   C7        1.0  0.09654  0.60878  0.15108  1.0000
  C   C8        1.0  0.06406  0.57017  0.15031  1.0000
  C   C9        1.0  0.37840  0.90967  0.17785  1.0000
  C   C10       1.0  0.41221  0.94753  0.17377  1.0000
  C   C11       1.0  0.44440  0.92774  0.34836  1.0000
  C   C12       1.0  0.41089  0.88991  0.35366  1.0000
  H   H5        1.0  0.00736  0.58023  0.39173  1.0000
  H   H6        1.0  0.06470  0.64949  0.39247  1.0000
  H   H7        1.0  0.12072  0.61709  0.07916  1.0000
  H   H8        1.0  0.06376  0.54800  0.08189  1.0000
  H   H9        1.0  0.35347  0.90220  0.10605  1.0000
  H   H10       1.0  0.41289  0.96958  0.10103  1.0000
  H   H11       1.0  0.47046  0.93456  0.41266  1.0000
  H   H12       1.0  0.41002  0.86730  0.42407  1.0000
  C   C13       1.0  0.41367  0.44243  0.32648  1.0000
  C   C14       1.0  0.37456  0.43520  0.32543  1.0000
  C   C15       1.0  0.39226  0.48782  0.15584  1.0000
  C   C16       1.0  0.43107  0.49448  0.15673  1.0000
  C   C17       1.0  0.09168  0.46786  0.17728  1.0000
  C   C18       1.0  0.05398  0.46437  0.17247  1.0000
  C   C19       1.0  0.07567  0.51643  0.34305  1.0000
  C   C20       1.0  0.11349  0.52057  0.34776  1.0000
  H   H13       1.0  0.42207  0.42481  0.39336  1.0000
  H   H14       1.0  0.35223  0.41233  0.39132  1.0000
  H   H15       1.0  0.38339  0.50410  0.08420  1.0000
  H   H16       1.0  0.45294  0.51705  0.08926  1.0000
  H   H17       1.0  0.09843  0.45017  0.10787  1.0000
  H   H18       1.0  0.03117  0.44328  0.10096  1.0000
  H   H19       1.0  0.06955  0.53558  0.40668  1.0000
  H   H20       1.0  0.13685  0.54214  0.41664  1.0000
  C   C21       1.0  0.44456  0.03165  0.32328  1.0000
  C   C22       1.0  0.43851  0.06426  0.32352  1.0000
  C   C23       1.0  0.49123  0.09782  0.15751  1.0000
  C   C24       1.0  0.49697  0.06515  0.15816  1.0000
  H   H21       1.0  0.42644  0.00593  0.38834  1.0000
  H   H22       1.0  0.41603  0.06449  0.38859  1.0000
  H   H23       1.0  0.50801  0.12253  0.08689  1.0000
  H   H24       1.0  0.51927  0.06513  0.09213  1.0000
  C   C25       1.0  0.97155  0.41299  0.32715  1.0000
  C   C26       1.0  0.93943  0.37411  0.32930  1.0000
  C   C27       1.0  0.90582  0.39148  0.14959  1.0000
  C   C28       1.0  0.93822  0.43010  0.14808  1.0000
  H   H25       1.0  0.99716  0.42133  0.39654  1.0000
  H   H26       1.0  0.93934  0.35201  0.40028  1.0000
  H   H27       1.0  0.88110  0.38277  0.07568  1.0000
  H   H28       1.0  0.93799  0.45195  0.07706  1.0000
  C   C29       1.0  0.47473  0.03175  0.24349  1.0000
  C   C30       1.0  0.46277  0.09858  0.24461  1.0000
  N   N1        1.0  0.45685  0.13131  0.25537  1.0000
  C   C31       1.0  0.48708  0.16695  0.24061  1.0000
  C   C32       1.0  0.47414  0.30819  0.27010  1.0000
  N   N2        1.0  0.50453  0.34403  0.27092  1.0000
  C   C33       1.0  0.48243  0.99783  0.25061  1.0000
  H   H29       1.0  0.51756  0.17220  0.22592  1.0000
  H   H30       1.0  0.44340  0.30276  0.27871  1.0000
  C   C34       1.0  0.97123  0.44227  0.23926  1.0000
  C   C35       1.0  0.90538  0.36305  0.24372  1.0000
  N   N3        1.0  0.87306  0.32408  0.25381  1.0000
  C   C36       1.0  0.83718  0.31875  0.24738  1.0000
  C   C37       1.0  0.69569  0.16427  0.26051  1.0000
  N   N4        1.0  0.66015  0.15909  0.27409  1.0000
  C   C38       1.0  0.00457  0.48423  0.24605  1.0000
  H   H31       1.0  0.83186  0.34423  0.24174  1.0000
  H   H32       1.0  0.70076  0.13871  0.25363  1.0000
  N   N5        1.0  0.67679  0.54690  0.24373  1.0000
  C   C39       1.0  0.68170  0.51649  0.22577  1.0000
  C   C40       1.0  0.72105  0.51982  0.22595  1.0000
  C   C41       1.0  0.72387  0.48485  0.21767  1.0000
  C   C42       1.0  0.76084  0.48683  0.22108  1.0000
  C   C43       1.0  0.79623  0.52415  0.23226  1.0000
  C   C44       1.0  0.79340  0.55914  0.23791  1.0000
  C   C45       1.0  0.75647  0.55713  0.23561  1.0000
  C   C46       1.0  0.83575  0.52796  0.24031  1.0000
  N   N6        1.0  0.84127  0.49761  0.24853  1.0000
  C   C47       1.0  0.51726  0.52019  0.25027  1.0000
  H   H33       1.0  0.65593  0.48616  0.21300  1.0000
  H   H34       1.0  0.69651  0.45599  0.20950  1.0000
  H   H35       1.0  0.76332  0.46004  0.21575  1.0000
  H   H36       1.0  0.82082  0.58800  0.24481  1.0000
  H   H37       1.0  0.75393  0.58386  0.24177  1.0000
  H   H38       1.0  0.86112  0.55878  0.24291  1.0000
  C   C48       1.0  0.52877  0.96996  0.24397  1.0000
  C   C49       1.0  0.54114  0.90360  0.24136  1.0000
  N   N7        1.0  0.54746  0.87098  0.24636  1.0000
  C   C50       1.0  0.51664  0.83551  0.23474  1.0000
  C   C51       1.0  0.52869  0.69355  0.24033  1.0000
  N   N8        1.0  0.49846  0.65804  0.25662  1.0000
  C   C52       1.0  0.52080  0.00357  0.25223  1.0000
  H   H39       1.0  0.48603  0.83078  0.23003  1.0000
  H   H40       1.0  0.55939  0.69874  0.23320  1.0000
  C   C53       1.0  0.03175  0.55841  0.23912  1.0000
  C   C54       1.0  0.09769  0.63774  0.24141  1.0000
  N   N9        1.0  0.13027  0.67673  0.24870  1.0000
  C   C55       1.0  0.16593  0.68149  0.25473  1.0000
  C   C56       1.0  0.30829  0.83556  0.25789  1.0000
  N   N10       1.0  0.34412  0.84139  0.27824  1.0000
  C   C57       1.0  0.37688  0.88019  0.26933  1.0000
  C   C58       1.0  0.44622  0.95754  0.25845  1.0000
  C   C59       1.0  0.99827  0.51649  0.24595  1.0000
  H   H41       1.0  0.17056  0.65564  0.26364  1.0000
  H   H42       1.0  0.30265  0.86057  0.24031  1.0000
  C   C60       1.0  0.44316  0.47302  0.24501  1.0000
  C   C61       1.0  0.36361  0.45888  0.24420  1.0000
  N   N11       1.0  0.32462  0.45218  0.25328  1.0000
  C   C62       1.0  0.31951  0.48282  0.24782  1.0000
  C   C63       1.0  0.16570  0.47097  0.26697  1.0000
  N   N12       1.0  0.16078  0.50165  0.27268  1.0000
  C   C64       1.0  0.12205  0.49591  0.26612  1.0000
  C   C65       1.0  0.04499  0.48856  0.25495  1.0000
  C   C66       1.0  0.48514  0.48163  0.25210  1.0000
  H   H43       1.0  0.34515  0.51344  0.24334  1.0000
  H   H44       1.0  0.14004  0.44030  0.26727  1.0000
  C   C67       1.0  0.52991  0.62305  0.68775  1.0000
  C   C68       1.0  0.53377  0.58912  0.68444  1.0000
  C   C69       1.0  0.47939  0.55581  0.84205  1.0000
  C   C70       1.0  0.47469  0.58914  0.84410  1.0000
  H   H45       1.0  0.54890  0.64875  0.62383  1.0000
  H   H46       1.0  0.55618  0.58886  0.61901  1.0000
  H   H47       1.0  0.45952  0.52971  0.90205  1.0000
  H   H48       1.0  0.45211  0.58967  0.90783  1.0000
  C   C71       1.0  0.37522  0.91023  0.67470  1.0000
  C   C72       1.0  0.40925  0.94795  0.67664  1.0000
  C   C73       1.0  0.44094  0.92493  0.84263  1.0000
  C   C74       1.0  0.40740  0.88711  0.84048  1.0000
  H   H49       1.0  0.35021  0.90397  0.60477  1.0000
  H   H50       1.0  0.41034  0.97138  0.60996  1.0000
  H   H51       1.0  0.46665  0.93040  0.90674  1.0000
  H   H52       1.0  0.40615  0.86318  0.90455  1.0000
  C   C75       1.0  0.08773  0.46672  0.66910  1.0000
  C   C76       1.0  0.05017  0.46358  0.66666  1.0000
  C   C77       1.0  0.07223  0.51416  0.84256  1.0000
  C   C78       1.0  0.10985  0.51765  0.84599  1.0000
  H   H53       1.0  0.09418  0.44952  0.59645  1.0000
  H   H54       1.0  0.02705  0.44298  0.59493  1.0000
  H   H55       1.0  0.06622  0.53284  0.90923  1.0000
  H   H56       1.0  0.13315  0.53827  0.91713  1.0000
  C   C79       1.0  0.62128  0.08872  0.68181  1.0000
  C   C80       1.0  0.58706  0.05127  0.68200  1.0000
  C   C81       1.0  0.55691  0.07444  0.84491  1.0000
  C   C82       1.0  0.59098  0.11196  0.84598  1.0000
  H   H57       1.0  0.64551  0.09474  0.61275  1.0000
  H   H58       1.0  0.58523  0.02779  0.61603  1.0000
  H   H59       1.0  0.53171  0.06901  0.90730  1.0000
  H   H60       1.0  0.59316  0.13566  0.91166  1.0000
  C   C83       1.0  0.90766  0.53201  0.66280  1.0000
  C   C84       1.0  0.94520  0.53517  0.66013  1.0000
  C   C85       1.0  0.92656  0.48719  0.84519  1.0000
  C   C86       1.0  0.88897  0.48362  0.84844  1.0000
  H   H61       1.0  0.89986  0.54833  0.58747  1.0000
  H   H62       1.0  0.96675  0.55443  0.58399  1.0000
  H   H63       1.0  0.93401  0.46957  0.91515  1.0000
  H   H64       1.0  0.86705  0.46402  0.92284  1.0000
  N   N13       1.0  0.45145  0.12853  0.77137  1.0000
  C   C87       1.0  0.48128  0.16394  0.74936  1.0000
  C   C88       1.0  0.47800  0.19984  0.75727  1.0000
  C   C89       1.0  0.51152  0.23718  0.72547  1.0000
  C   C90       1.0  0.50972  0.27211  0.73297  1.0000
  C   C91       1.0  0.47416  0.27066  0.77311  1.0000
  C   C92       1.0  0.44061  0.23329  0.80445  1.0000
  C   C93       1.0  0.44239  0.19836  0.79711  1.0000
  C   C94       1.0  0.47106  0.30667  0.78250  1.0000
  N   N14       1.0  0.50169  0.34226  0.77453  1.0000
  C   C95       1.0  0.47915  0.99646  0.75515  1.0000
  H   H65       1.0  0.51116  0.16874  0.72591  1.0000
  H   H66       1.0  0.53901  0.23833  0.69415  1.0000
  H   H67       1.0  0.53527  0.30098  0.70772  1.0000
  H   H68       1.0  0.41317  0.23217  0.83609  1.0000
  H   H69       1.0  0.41683  0.16943  0.82204  1.0000
  H   H70       1.0  0.44089  0.30196  0.79930  1.0000
  N   N15       1.0  0.87061  0.32269  0.74388  1.0000
  C   C96       1.0  0.83452  0.31683  0.74199  1.0000
  C   C97       1.0  0.79895  0.27729  0.73989  1.0000
  C   C98       1.0  0.76108  0.27445  0.74572  1.0000
  C   C99       1.0  0.72622  0.23759  0.74758  1.0000
  C   C100      1.0  0.72830  0.20224  0.74397  1.0000
  C   C101      1.0  0.76609  0.20505  0.73504  1.0000
  C   C102      1.0  0.80098  0.24194  0.73304  1.0000
  C   C103      1.0  0.69256  0.16299  0.75126  1.0000
  N   N16       1.0  0.65726  0.15829  0.76735  1.0000
  C   C104      1.0  0.62403  0.11975  0.76506  1.0000
  C   C105      1.0  0.55381  0.04322  0.76218  1.0000
  C   C106      1.0  0.00118  0.48356  0.74511  1.0000
  H   H71       1.0  0.82884  0.34206  0.74517  1.0000
  H   H72       1.0  0.75958  0.30183  0.74949  1.0000
  H   H73       1.0  0.69694  0.23510  0.75276  1.0000
  H   H74       1.0  0.76761  0.17769  0.73044  1.0000
  H   H75       1.0  0.83020  0.24429  0.72717  1.0000
  H   H76       1.0  0.69745  0.13731  0.74536  1.0000
  N   N17       1.0  0.67588  0.55110  0.75261  1.0000
  C   C107      1.0  0.68114  0.52053  0.75668  1.0000
  C   C108      1.0  0.83513  0.53160  0.74551  1.0000
  N   N18       1.0  0.84051  0.50150  0.76758  1.0000
  C   C109      1.0  0.87892  0.50644  0.75840  1.0000
  C   C110      1.0  0.95544  0.51259  0.75056  1.0000
  C   C111      1.0  0.51422  0.51920  0.75469  1.0000
  H   H77       1.0  0.65555  0.48992  0.76364  1.0000
  H   H78       1.0  0.86041  0.56175  0.72591  1.0000
  N   N19       1.0  0.54497  0.87036  0.77169  1.0000
  C   C112      1.0  0.51422  0.83488  0.75808  1.0000
  C   C113      1.0  0.51730  0.79878  0.76621  1.0000
  C   C114      1.0  0.48253  0.76107  0.74808  1.0000
  C   C115      1.0  0.48458  0.72619  0.75259  1.0000
  C   C116      1.0  0.52164  0.72801  0.77660  1.0000
  C   C117      1.0  0.55633  0.76566  0.79556  1.0000
  C   C118      1.0  0.55430  0.80052  0.79066  1.0000
  C   C119      1.0  0.52518  0.69215  0.78085  1.0000
  N   N20       1.0  0.49442  0.65656  0.77407  1.0000
  C   C120      1.0  0.50033  0.62373  0.76857  1.0000
  C   C121      1.0  0.50870  0.55456  0.76128  1.0000
  C   C122      1.0  0.51779  0.00292  0.75583  1.0000
  H   H79       1.0  0.48387  0.83030  0.74111  1.0000
  H   H80       1.0  0.45385  0.75959  0.72918  1.0000
  H   H81       1.0  0.45807  0.69701  0.73721  1.0000
  H   H82       1.0  0.58501  0.76711  0.81378  1.0000
  H   H83       1.0  0.58085  0.82969  0.80500  1.0000
  H   H84       1.0  0.55578  0.69699  0.79202  1.0000
  N   N21       1.0  0.12835  0.67553  0.74874  1.0000
  C   C123      1.0  0.16391  0.68119  0.72976  1.0000
  C   C124      1.0  0.19949  0.72063  0.73639  1.0000
  C   C125      1.0  0.23740  0.72445  0.71698  1.0000
  C   C126      1.0  0.27192  0.76157  0.72343  1.0000
  C   C127      1.0  0.26945  0.79606  0.74910  1.0000
  C   C128      1.0  0.23156  0.79223  0.76841  1.0000
  C   C129      1.0  0.19705  0.75510  0.76299  1.0000
  C   C130      1.0  0.30505  0.83550  0.75658  1.0000
  N   N22       1.0  0.34079  0.84050  0.75835  1.0000
  C   C131      1.0  0.37364  0.87921  0.75767  1.0000
  C   C132      1.0  0.44308  0.95620  0.75985  1.0000
  C   C133      1.0  0.99551  0.51617  0.74381  1.0000
  H   H85       1.0  0.16914  0.65614  0.71092  1.0000
  H   H86       1.0  0.23930  0.69780  0.69654  1.0000
  H   H87       1.0  0.30130  0.76493  0.70848  1.0000
  H   H88       1.0  0.22975  0.81892  0.78873  1.0000
  H   H89       1.0  0.16769  0.75169  0.77883  1.0000
  H   H90       1.0  0.29993  0.86102  0.76330  1.0000
  N   N23       1.0  0.32180  0.45022  0.75165  1.0000
  C   C134      1.0  0.31639  0.48064  0.74473  1.0000
  C   C135      1.0  0.27679  0.47682  0.74456  1.0000
  C   C136      1.0  0.27372  0.51159  0.75462  1.0000
  C   C137      1.0  0.23663  0.50924  0.75763  1.0000
  C   C138      1.0  0.20125  0.47185  0.74875  1.0000
  C   C139      1.0  0.20438  0.43712  0.73704  1.0000
  C   C140      1.0  0.24149  0.43945  0.73555  1.0000
  C   C141      1.0  0.16173  0.46822  0.75119  1.0000
  N   N24       1.0  0.15684  0.49872  0.76673  1.0000
  C   C142      1.0  0.11826  0.49361  0.76023  1.0000
  C   C143      1.0  0.04150  0.48738  0.75243  1.0000
  C   C144      1.0  0.48269  0.48019  0.75533  1.0000
  H   H91       1.0  0.34191  0.51136  0.74196  1.0000
  H   H92       1.0  0.30102  0.54054  0.76088  1.0000
  H   H93       1.0  0.23398  0.53585  0.76661  1.0000
  H   H94       1.0  0.17720  0.40812  0.72888  1.0000
  H   H95       1.0  0.24423  0.41286  0.72738  1.0000
  H   H96       1.0  0.13607  0.43767  0.74150  1.0000
  C  Sn1       1.0  0.57428  0.49886  0.16727  1.0000
  C   C145      1.0  0.55957  0.51744  0.25194  1.0000
  C  Sn2       1.0  0.58587  0.55255  0.32261  1.0000
  C  Sn3       1.0  0.62777  0.56946  0.30830  1.0000
  C   C146      1.0  0.64246  0.55089  0.22366  1.0000
  C  Sn4       1.0  0.61618  0.51578  0.15296  1.0000
  O  Te1       1.0  0.54743  0.46378  0.09759  1.0000
  O  Te2       1.0  0.57045  0.57057  0.40669  1.0000
  O  Te3       1.0  0.65462  0.60457  0.37808  1.0000
  O  Te4       1.0  0.63158  0.49776  0.06891  1.0000
  Mg  Mg1       1.0  0.61910  0.61801  0.48042  1.0000
  Mg  Mg2       1.0  0.58924  0.45008  0.99508  1.0000
  C  Sn5       1.0  0.07515  0.57371  0.66916  1.0000
  C   C147      1.0  0.04087  0.55830  0.74911  1.0000
  C  Sn6       1.0  0.03101  0.58397  0.81592  1.0000
  C  Sn7       1.0  0.05592  0.62591  0.80249  1.0000
  C   C148      1.0  0.09017  0.64130  0.72256  1.0000
  C  Sn8       1.0  0.10005  0.61565  0.65572  1.0000
  O  Te5       1.0  0.08443  0.54749  0.60327  1.0000
  O  Te6       1.0  0.99660  0.56787  0.89533  1.0000
  O  Te7       1.0  0.04661  0.65213  0.86846  1.0000
  O  Te8       1.0  0.13444  0.63173  0.57634  1.0000
  Mg  Mg3       1.0  0.99657  0.61581  0.96507  1.0000
  Mg  Mg4       1.0  0.13448  0.58383  0.50650  1.0000
  C  Sn9       1.0  0.47394  0.38879  0.14322  1.0000
  C   C149      1.0  0.50041  0.38194  0.22451  1.0000
  C  Sn10      1.0  0.51997  0.40593  0.33958  1.0000
  C  Sn11      1.0  0.51291  0.43741  0.37418  1.0000
  C   C150      1.0  0.48645  0.44424  0.29294  1.0000
  C  Sn12      1.0  0.46687  0.42027  0.17783  1.0000
  O  Te9       1.0  0.45471  0.36444  0.02866  1.0000
  O  Te10      1.0  0.54632  0.39850  0.41925  1.0000
  O  Te11      1.0  0.53217  0.46177  0.48885  1.0000
  O  Te12      1.0  0.44054  0.42768  0.09820  1.0000
  Mg  Mg5       1.0  0.56533  0.43983  0.56537  1.0000
  Mg  Mg6       1.0  0.42776  0.38609  0.95211  1.0000
  C  Sn13      1.0  0.27002  0.75077  0.24447  1.0000
  C   C151      1.0  0.27343  0.78824  0.22494  1.0000
  C  Sn14      1.0  0.23971  0.79266  0.23165  1.0000
  C  Sn15      1.0  0.20179  0.75892  0.25854  1.0000
  C   C152      1.0  0.19841  0.72148  0.27808  1.0000
  C  Sn16      1.0  0.23211  0.71703  0.27136  1.0000
  O  Te13      1.0  0.30414  0.74704  0.23731  1.0000
  O  Te14      1.0  0.24385  0.83042  0.21172  1.0000
  O  Te15      1.0  0.16767  0.76268  0.26568  1.0000
  O  Te16      1.0  0.22798  0.67930  0.29129  1.0000
  Mg  Mg7       1.0  0.18859  0.82031  0.23146  1.0000
  Mg  Mg8       1.0  0.28323  0.68938  0.27165  1.0000
  C  Sn17      1.0  0.21542  0.43760  0.30357  1.0000
  C   C153      1.0  0.20705  0.46888  0.30027  1.0000
  C  Sn18      1.0  0.23610  0.50709  0.25877  1.0000
  C  Sn19      1.0  0.27431  0.51419  0.21967  1.0000
  C   C154      1.0  0.28266  0.48293  0.22295  1.0000
  C  Sn20      1.0  0.25362  0.44470  0.26446  1.0000
  O  Te17      1.0  0.18592  0.39963  0.34539  1.0000
  O  Te18      1.0  0.22704  0.53789  0.25636  1.0000
  O  Te19      1.0  0.30382  0.55220  0.17783  1.0000
  O  Te20      1.0  0.26267  0.41391  0.26686  1.0000
  Mg  Mg9       1.0  0.27714  0.58444  0.19168  1.0000
  Mg  Mg10      1.0  0.21258  0.36736  0.33145  1.0000
  C  Sn21      1.0  0.91463  0.47219  0.30808  1.0000
  C   C155      1.0  0.94847  0.49992  0.23695  1.0000
  C  Sn22      1.0  0.94994  0.53378  0.17750  1.0000
  C  Sn23      1.0  0.91691  0.54006  0.18947  1.0000
  C   C156      1.0  0.88311  0.51234  0.26059  1.0000
  C  Sn24      1.0  0.88161  0.47847  0.32005  1.0000
  O  Te21      1.0  0.91382  0.43855  0.36669  1.0000
  O  Te22      1.0  0.98408  0.56108  0.10685  1.0000
  O  Te23      1.0  0.91776  0.57373  0.13078  1.0000
  O  Te24      1.0  0.84750  0.45119  0.39068  1.0000
  Mg  Mg11      1.0  0.97094  0.60232  0.04482  1.0000
  Mg  Mg12      1.0  0.86061  0.40995  0.45281  1.0000
  C  Sn25      1.0  0.76333  0.56226  0.68974  1.0000
  C   C157      1.0  0.72611  0.52859  0.71428  1.0000
  C  Sn26      1.0  0.72375  0.49399  0.77046  1.0000
  C  Sn27      1.0  0.75933  0.49302  0.80286  1.0000
  C   C158      1.0  0.79652  0.52667  0.77835  1.0000
  C  Sn28      1.0  0.79891  0.56129  0.72215  1.0000
  O  Te25      1.0  0.76498  0.59653  0.63352  1.0000
  O  Te26      1.0  0.68620  0.46071  0.79402  1.0000
  O  Te27      1.0  0.75765  0.45871  0.85913  1.0000
  O  Te28      1.0  0.83643  0.59456  0.69860  1.0000
  Mg  Mg13      1.0  0.69949  0.42102  0.87235  1.0000
  Mg  Mg14      1.0  0.82318  0.63427  0.62035  1.0000
  C  Sn29      1.0  0.51633  0.91553  0.62552  1.0000
  C   C159      1.0  0.54305  0.90973  0.70947  1.0000
  C  Sn30      1.0  0.56029  0.93298  0.82792  1.0000
  C  Sn31      1.0  0.55061  0.96262  0.86325  1.0000
  C   C160      1.0  0.52390  0.96840  0.77934  1.0000
  C  Sn32      1.0  0.50665  0.94517  0.66086  1.0000
  O  Te29      1.0  0.49945  0.89195  0.50761  1.0000
  O  Te30      1.0  0.58693  0.92664  0.91021  1.0000
  O  Te31      1.0  0.56752  0.98621  0.98128  1.0000
  O  Te32      1.0  0.48002  0.95149  0.57861  1.0000
  Mg  Mg15      1.0  0.59587  0.96657  0.06048  1.0000
  Mg  Mg16      1.0  0.46477  0.91183  0.42836  1.0000
  C  Sn33      1.0  0.54531  0.60221  0.18616  1.0000
  C   C161      1.0  0.52569  0.56804  0.26847  1.0000
  C  Sn34      1.0  0.49130  0.56004  0.33901  1.0000
  C  Sn35      1.0  0.47618  0.58674  0.32697  1.0000
  C   C162      1.0  0.49579  0.62088  0.24468  1.0000
  C  Sn36      1.0  0.53019  0.62891  0.17412  1.0000
  O  Te33      1.0  0.57965  0.60961  0.11656  1.0000
  O  Te34      1.0  0.47221  0.52569  0.42071  1.0000
  O  Te35      1.0  0.44181  0.57931  0.39666  1.0000
  O  Te36      1.0  0.54927  0.66323  0.09244  1.0000
  Mg  Mg17      1.0  0.42639  0.52858  0.49531  1.0000
  Mg  Mg18      1.0  0.59508  0.66036  0.01774  1.0000
  C  Sn37      1.0  0.59211  0.09952  0.39402  1.0000
  C   C163      1.0  0.62545  0.11427  0.30962  1.0000
  C  Sn38      1.0  0.62371  0.09448  0.18747  1.0000
  C  Sn39      1.0  0.58789  0.05923  0.14881  1.0000
  C   C164      1.0  0.55457  0.04451  0.23317  1.0000
  C  Sn40      1.0  0.55628  0.06428  0.35536  1.0000
  O  Te37      1.0  0.59452  0.11979  0.51568  1.0000
  O  Te38      1.0  0.65744  0.10979  0.10480  1.0000
  O  Te39      1.0  0.58549  0.03897  0.02705  1.0000
  O  Te40      1.0  0.52258  0.04899  0.43799  1.0000
  Mg  Mg19      1.0  0.64566  0.07127  0.94883  1.0000
  Mg  Mg20      1.0  0.54059  0.08723  0.59394  1.0000
  C  Sn41      1.0  0.43091  0.03075  0.82499  1.0000
  C   C165      1.0  0.45578  0.02476  0.73772  1.0000
  C  Sn42      1.0  0.48476  0.05647  0.66092  1.0000
  C  Sn43      1.0  0.48899  0.09498  0.67163  1.0000
  C   C166      1.0  0.46414  0.10096  0.75886  1.0000
  C  Sn44      1.0  0.43514  0.06926  0.83569  1.0000
  O  Te41      1.0  0.90223  0.99862  0.90081  1.0000
  O  Te42      1.0  0.50927  0.04975  0.57434  1.0000
  O  Te43      1.0  0.51779  0.12712  0.59571  1.0000
  O  Te44      1.0  0.41065  0.07597  0.92225  1.0000
  Mg  Mg21      1.0  0.54406  0.10300  0.49204  1.0000
  Mg  Mg22      1.0  0.36960  0.02301  0.00464  1.0000
  C  Sn45      1.0  0.45253  0.39694  0.71261  1.0000
  C   C167      1.0  0.47565  0.43307  0.78263  1.0000
  C  Sn46      1.0  0.51288  0.44260  0.84091  1.0000
  C  Sn47      1.0  0.52732  0.41547  0.82889  1.0000
  C   C168      1.0  0.50420  0.37937  0.75889  1.0000
  C  Sn48      1.0  0.46696  0.36981  0.70059  1.0000
  O  Te45      1.0  0.41539  0.38803  0.65515  1.0000
  O  Te46      1.0  0.53546  0.47889  0.91046  1.0000
  O  Te47      1.0  0.56448  0.42440  0.88643  1.0000
  O  Te48      1.0  0.44440  0.33355  0.63106  1.0000
  Mg  Mg23      1.0  0.58418  0.47754  0.97115  1.0000
  Mg  Mg24      1.0  0.39568  0.33488  0.57027  1.0000
  C  Sn49      1.0  0.51635  0.26891  0.19273  1.0000
  C   C169      1.0  0.48249  0.27185  0.21982  1.0000
  C  Sn50      1.0  0.44840  0.23926  0.27389  1.0000
  C  Sn51      1.0  0.44815  0.20299  0.30155  1.0000
  C   C170      1.0  0.48199  0.20007  0.27449  1.0000
  C  Sn52      1.0  0.51610  0.23264  0.22039  1.0000
  O  Te49      1.0  0.55010  0.30187  0.13868  1.0000
  O  Te50      1.0  0.41490  0.24291  0.30007  1.0000
  O  Te51      1.0  0.41435  0.17002  0.35564  1.0000
  O  Te52      1.0  0.54958  0.22900  0.19424  1.0000
  Mg  Mg25      1.0  0.37611  0.18967  0.37388  1.0000
  Mg  Mg26      1.0  0.58839  0.28223  0.12050  1.0000
  C  Sn53      1.0  0.56050  0.79592  0.18748  1.0000
  C   C171      1.0  0.52605  0.79913  0.19341  1.0000
  C  Sn54      1.0  0.48974  0.76638  0.23266  1.0000
  C  Sn55      1.0  0.48782  0.72965  0.26680  1.0000
  C   C172      1.0  0.52226  0.72645  0.26089  1.0000
  C  Sn56      1.0  0.55859  0.75920  0.22162  1.0000
  O  Te53      1.0  0.59648  0.82906  0.14797  1.0000
  O  Te54      1.0  0.45569  0.77031  0.23778  1.0000
  O  Te55      1.0  0.45180  0.69650  0.30633  1.0000
  O  Te56      1.0  0.59261  0.75528  0.21652  1.0000
  Mg  Mg27      1.0  0.41364  0.71667  0.29769  1.0000
  Mg  Mg28      1.0  0.63469  0.80890  0.15670  1.0000
  C  Sn57      1.0  0.79772  0.23482  0.20802  1.0000
  C   C173      1.0  0.80065  0.27233  0.21250  1.0000
  C  Sn58      1.0  0.76806  0.27596  0.25253  1.0000
  C  Sn59      1.0  0.73180  0.24137  0.28894  1.0000
  C   C174      1.0  0.72889  0.20389  0.28448  1.0000
  C  Sn60      1.0  0.76146  0.20023  0.24443  1.0000
  O  Te57      1.0  0.83068  0.23189  0.16770  1.0000
  O  Te58      1.0  0.77170  0.31378  0.25616  1.0000
  O  Te59      1.0  0.69883  0.24432  0.32928  1.0000
  O  Te60      1.0  0.75784  0.16244  0.24082  1.0000
  Mg  Mg29      1.0  0.71846  0.30238  0.31798  1.0000
  Mg  Mg30      1.0  0.81106  0.17380  0.17909  1.0000
  C  Sn61      1.0  0.96859  0.40018  0.79522  1.0000
  C   C175      1.0  0.97180  0.43316  0.72269  1.0000
  C  Sn62      1.0  0.93794  0.43173  0.66112  1.0000
  C  Sn63      1.0  0.90007  0.39660  0.67235  1.0000
  C   C176      1.0  0.89687  0.36364  0.74487  1.0000
  C  Sn64      1.0  0.93072  0.36505  0.80645  1.0000
  O  Te61      1.0  0.00283  0.40228  0.85596  1.0000
  O  Te62      1.0  0.94190  0.46508  0.58909  1.0000
  O  Te63      1.0  0.86582  0.39452  0.61153  1.0000
  O  Te64      1.0  0.92677  0.33173  0.87846  1.0000
  Mg  Mg31      1.0  0.88650  0.44769  0.52432  1.0000
  Mg  Mg32      1.0  0.98215  0.34909  0.94333  1.0000
  C  Sn65      1.0  0.57316  0.49934  0.68224  1.0000
  C   C177      1.0  0.55779  0.51891  0.75868  1.0000
  C  Sn66      1.0  0.58351  0.55582  0.82022  1.0000
  C  Sn67      1.0  0.62546  0.57356  0.80497  1.0000
  C   C178      1.0  0.64080  0.55400  0.72855  1.0000
  C  Sn68      1.0  0.61511  0.51708  0.66699  1.0000
  O  Te65      1.0  0.54689  0.46247  0.62161  1.0000
  O  Te66      1.0  0.56744  0.57480  0.89619  1.0000
  O  Te67      1.0  0.65173  0.61046  0.86568  1.0000
  O  Te68      1.0  0.63115  0.49810  0.59104  1.0000
  Mg  Mg33      1.0  0.61544  0.62465  0.95913  1.0000
  Mg  Mg34      1.0  0.58318  0.44827  0.52800  1.0000
  C  Sn69      1.0  0.39453  0.47795  0.61426  1.0000
  C   C179      1.0  0.36327  0.45278  0.70056  1.0000
  C  Sn70      1.0  0.37117  0.43838  0.82372  1.0000
  C  Sn71      1.0  0.41114  0.44938  0.86147  1.0000
  C   C180      1.0  0.44237  0.47454  0.77522  1.0000
  C  Sn72      1.0  0.43450  0.48895  0.65202  1.0000
  O  Te69      1.0  0.38595  0.49199  0.49163  1.0000
  O  Te70      1.0  0.33942  0.41324  0.90828  1.0000
  O  Te71      1.0  0.41970  0.43531  0.98422  1.0000
  O  Te72      1.0  0.46622  0.51407  0.56750  1.0000
  Mg  Mg35      1.0  0.36004  0.40211  0.06498  1.0000
  Mg  Mg36      1.0  0.43937  0.52550  0.41081  1.0000
