data_image0
_chemical_formula_structural       NC2NCH2NC2NCH2NC2NCH2NC2NCH2NC2NCH2NC2NCH2NC2NCH2NC2NCH2NC2NCH2NC2NCH2NC2NCH2NC2NCH2SnCSn2CSnTe4Mg2SnCSn2CSnTe4Mg2SnCSn2CSnTe4Mg2SnCSn2CSnTe4Mg2SnCSn2CSnTe4Mg2SnCSn2CSnTe4Mg2SnCSn2CSnTe4Mg2SnCSn2CSnTe4Mg2SnCSn2CSnTe4Mg2SnCSn2CSnTe4Mg2SnCSn2CSnTe4Mg2SnCSn2CSnTe4Mg2SnCSn2CSnTe4Mg2SnCSn2CSnTe4Mg2SnCSn2CSnTe4Mg2SnCSn2CSnTe4Mg2SnCSn2CSnTe4Mg2SnCSn2CSnTe4Mg2SnCSn2CSnTe4Mg2SnCSn2CSnTe4Mg2SnCSn2CSnTe4Mg2SnCSn2CSnTe4Mg2SnCSn2CSnTe4Mg2SnCSn2CSnTe4Mg2SnCSn2CSnTe4Mg2SnCSn2CSnTe4Mg2SnCSn2CSnTe4Mg2SnCSn2CSnTe4Mg2SnCSn2CSnTe4Mg2SnCSn2CSnTe4Mg2SnCSn2CSnTe4Mg2SnCSn2CSnTe4Mg2SnCSn2CSnTe4Mg2SnCSn2CSnTe4Mg2SnCSn2CSnTe4Mg2SnCSn2CSnTe4Mg2
_chemical_formula_sum              "N24 C108 H24 Sn144 Te144 Mg72"
_cell_length_a       38.5696
_cell_length_b       38.6334
_cell_length_c       9.66315
_cell_angle_alpha    89.2241
_cell_angle_beta     91.4641
_cell_angle_gamma    119.951

_symmetry_space_group_name_H-M    'P1'
_space_group_IT_number       1

loop_
  _space_group_symop_operation_xyz
  'x, y, z'

loop_
  _atom_site_type_symbol
  _atom_site_label
  _atom_site_symmetry_multiplicity
  _atom_site_fract_x
  _atom_site_fract_y
  _atom_site_fract_z
  _atom_site_occupancy
  N   N1        1.0  0.45685  0.13131  0.25537  1.0000
  C   C1        1.0  0.48708  0.16695  0.24061  1.0000
  C   C2        1.0  0.47414  0.30819  0.27010  1.0000
  N   N2        1.0  0.50453  0.34403  0.27092  1.0000
  C   C3        1.0  0.48243  0.99783  0.25061  1.0000
  H   H1        1.0  0.51756  0.17220  0.22592  1.0000
  H   H2        1.0  0.44340  0.30276  0.27871  1.0000
  N   N3        1.0  0.87306  0.32408  0.25381  1.0000
  C   C4        1.0  0.83718  0.31875  0.24738  1.0000
  C   C5        1.0  0.69569  0.16427  0.26051  1.0000
  N   N4        1.0  0.66015  0.15909  0.27409  1.0000
  C   C6        1.0  0.00457  0.48423  0.24605  1.0000
  H   H3        1.0  0.83186  0.34423  0.24174  1.0000
  H   H4        1.0  0.70076  0.13871  0.25363  1.0000
  N   N5        1.0  0.67679  0.54690  0.24373  1.0000
  C   C7        1.0  0.68170  0.51649  0.22577  1.0000
  C   C8        1.0  0.83575  0.52796  0.24031  1.0000
  N   N6        1.0  0.84127  0.49761  0.24853  1.0000
  C   C9        1.0  0.51726  0.52019  0.25027  1.0000
  H   H5        1.0  0.65593  0.48616  0.21300  1.0000
  H   H6        1.0  0.86112  0.55878  0.24291  1.0000
  N   N7        1.0  0.54746  0.87098  0.24636  1.0000
  C   C10       1.0  0.51664  0.83551  0.23474  1.0000
  C   C11       1.0  0.52869  0.69355  0.24033  1.0000
  N   N8        1.0  0.49846  0.65804  0.25662  1.0000
  C   C12       1.0  0.52080  0.00357  0.25223  1.0000
  H   H7        1.0  0.48603  0.83078  0.23003  1.0000
  H   H8        1.0  0.55939  0.69874  0.23320  1.0000
  N   N9        1.0  0.13027  0.67673  0.24870  1.0000
  C   C13       1.0  0.16593  0.68149  0.25473  1.0000
  C   C14       1.0  0.30829  0.83556  0.25789  1.0000
  N   N10       1.0  0.34412  0.84139  0.27824  1.0000
  C   C15       1.0  0.99827  0.51649  0.24595  1.0000
  H   H9        1.0  0.17056  0.65564  0.26364  1.0000
  H   H10       1.0  0.30265  0.86057  0.24031  1.0000
  N   N11       1.0  0.32462  0.45218  0.25328  1.0000
  C   C16       1.0  0.31951  0.48282  0.24782  1.0000
  C   C17       1.0  0.16570  0.47097  0.26697  1.0000
  N   N12       1.0  0.16078  0.50165  0.27268  1.0000
  C   C18       1.0  0.48514  0.48163  0.25210  1.0000
  H   H11       1.0  0.34515  0.51344  0.24334  1.0000
  H   H12       1.0  0.14004  0.44030  0.26727  1.0000
  N   N13       1.0  0.45145  0.12853  0.77137  1.0000
  C   C19       1.0  0.48128  0.16394  0.74936  1.0000
  C   C20       1.0  0.47106  0.30667  0.78250  1.0000
  N   N14       1.0  0.50169  0.34226  0.77453  1.0000
  C   C21       1.0  0.47915  0.99646  0.75515  1.0000
  H   H13       1.0  0.51116  0.16874  0.72591  1.0000
  H   H14       1.0  0.44089  0.30196  0.79930  1.0000
  N   N15       1.0  0.87061  0.32269  0.74388  1.0000
  C   C22       1.0  0.83452  0.31683  0.74199  1.0000
  C   C23       1.0  0.69256  0.16299  0.75126  1.0000
  N   N16       1.0  0.65726  0.15829  0.76735  1.0000
  C   C24       1.0  0.00118  0.48356  0.74511  1.0000
  H   H15       1.0  0.82884  0.34206  0.74517  1.0000
  H   H16       1.0  0.69745  0.13731  0.74536  1.0000
  N   N17       1.0  0.67588  0.55110  0.75261  1.0000
  C   C25       1.0  0.68114  0.52053  0.75668  1.0000
  C   C26       1.0  0.83513  0.53160  0.74551  1.0000
  N   N18       1.0  0.84051  0.50150  0.76758  1.0000
  C   C27       1.0  0.51422  0.51920  0.75469  1.0000
  H   H17       1.0  0.65555  0.48992  0.76364  1.0000
  H   H18       1.0  0.86041  0.56175  0.72591  1.0000
  N   N19       1.0  0.54497  0.87036  0.77169  1.0000
  C   C28       1.0  0.51422  0.83488  0.75808  1.0000
  C   C29       1.0  0.52518  0.69215  0.78085  1.0000
  N   N20       1.0  0.49442  0.65656  0.77407  1.0000
  C   C30       1.0  0.51779  0.00292  0.75583  1.0000
  H   H19       1.0  0.48387  0.83030  0.74111  1.0000
  H   H20       1.0  0.55578  0.69699  0.79202  1.0000
  N   N21       1.0  0.12835  0.67553  0.74874  1.0000
  C   C31       1.0  0.16391  0.68119  0.72976  1.0000
  C   C32       1.0  0.30505  0.83550  0.75658  1.0000
  N   N22       1.0  0.34079  0.84050  0.75835  1.0000
  C   C33       1.0  0.99551  0.51617  0.74381  1.0000
  H   H21       1.0  0.16914  0.65614  0.71092  1.0000
  H   H22       1.0  0.29993  0.86102  0.76330  1.0000
  N   N23       1.0  0.32180  0.45022  0.75165  1.0000
  C   C34       1.0  0.31639  0.48064  0.74473  1.0000
  C   C35       1.0  0.16173  0.46822  0.75119  1.0000
  N   N24       1.0  0.15684  0.49872  0.76673  1.0000
  C   C36       1.0  0.48269  0.48019  0.75533  1.0000
  H   H23       1.0  0.34191  0.51136  0.74196  1.0000
  H   H24       1.0  0.13607  0.43767  0.74150  1.0000
  C  Sn1       1.0  0.57022  0.96880  0.30736  1.0000
  C   C37       1.0  0.54269  0.97473  0.22883  1.0000
  C  Sn2       1.0  0.51094  0.94283  0.15871  1.0000
  C  Sn3       1.0  0.50659  0.90418  0.16732  1.0000
  C   C38       1.0  0.53411  0.89827  0.24583  1.0000
  C  Sn4       1.0  0.56588  0.93016  0.31598  1.0000
  O  Te1       1.0  0.10165  0.00113  0.37662  1.0000
  O  Te2       1.0  0.48380  0.94949  0.08081  1.0000
  O  Te3       1.0  0.47505  0.87185  0.09798  1.0000
  O  Te4       1.0  0.59300  0.92351  0.39386  1.0000
  Mg  Mg1       1.0  0.44581  0.89595  0.00515  1.0000
  Mg  Mg2       1.0  0.63099  0.97702  0.46961  1.0000
  C  Sn5       1.0  0.52521  0.61111  0.12836  1.0000
  C   C39       1.0  0.50112  0.61926  0.21203  1.0000
  C  Sn6       1.0  0.48514  0.59725  0.33280  1.0000
  C  Sn7       1.0  0.49342  0.56648  0.37081  1.0000
  C   C40       1.0  0.51750  0.55836  0.28718  1.0000
  C  Sn8       1.0  0.53349  0.58034  0.16636  1.0000
  O  Te5       1.0  0.54087  0.63349  0.00808  1.0000
  O  Te6       1.0  0.46113  0.60594  0.41476  1.0000
  O  Te7       1.0  0.47773  0.54410  0.49119  1.0000
  O  Te8       1.0  0.55749  0.57167  0.08445  1.0000
  Mg  Mg3       1.0  0.44672  0.56718  0.56887  1.0000
  Mg  Mg4       1.0  0.57820  0.61016  0.93036  1.0000
  C  Sn9       1.0  0.07779  0.57481  0.17290  1.0000
  C   C41       1.0  0.04311  0.55911  0.25081  1.0000
  C  Sn10      1.0  0.03274  0.58452  0.31667  1.0000
  C  Sn11      1.0  0.05753  0.62651  0.30434  1.0000
  C   C42       1.0  0.09219  0.64219  0.22646  1.0000
  C  Sn12      1.0  0.10259  0.61679  0.16057  1.0000
  O  Te9       1.0  0.08758  0.54884  0.10794  1.0000
  O  Te10      1.0  0.99792  0.56812  0.39403  1.0000
  O  Te11      1.0  0.04772  0.65248  0.36939  1.0000
  O  Te12      1.0  0.13737  0.63317  0.08323  1.0000
  Mg  Mg5       1.0  0.99727  0.61580  0.46319  1.0000
  Mg  Mg6       1.0  0.13804  0.58553  0.01398  1.0000
  C  Sn13      1.0  0.39902  0.94387  0.19660  1.0000
  C   C43       1.0  0.43476  0.95833  0.27337  1.0000
  C  Sn14      1.0  0.44408  0.93192  0.34249  1.0000
  C  Sn15      1.0  0.41712  0.89019  0.33465  1.0000
  C   C44       1.0  0.38140  0.87575  0.25790  1.0000
  C  Sn16      1.0  0.37206  0.90214  0.18876  1.0000
  O  Te13      1.0  0.39032  0.97082  0.12833  1.0000
  O  Te14      1.0  0.47999  0.94709  0.41863  1.0000
  O  Te15      1.0  0.42585  0.86325  0.40301  1.0000
  O  Te16      1.0  0.33618  0.88699  0.11264  1.0000
  Mg  Mg7       1.0  0.47847  0.89840  0.49350  1.0000
  Mg  Mg8       1.0  0.33767  0.93565  0.03768  1.0000
  C  Sn17      1.0  0.40167  0.43066  0.30282  1.0000
  C   C45       1.0  0.43407  0.45918  0.22766  1.0000
  C  Sn18      1.0  0.43231  0.49086  0.16316  1.0000
  C  Sn19      1.0  0.39745  0.49412  0.17406  1.0000
  C   C46       1.0  0.36507  0.46562  0.24919  1.0000
  C  Sn20      1.0  0.36680  0.43392  0.31372  1.0000
  O  Te17      1.0  0.40408  0.39924  0.36646  1.0000
  O  Te18      1.0  0.46508  0.51900  0.08855  1.0000
  O  Te19      1.0  0.39505  0.52558  0.11033  1.0000
  O  Te20      1.0  0.33406  0.40580  0.38830  1.0000
  Mg  Mg9       1.0  0.44745  0.55642  0.02030  1.0000
  Mg  Mg10      1.0  0.35167  0.36838  0.45666  1.0000
  C  Sn21      1.0  0.10272  0.51355  0.38394  1.0000
  C   C47       1.0  0.11665  0.49289  0.30627  1.0000
  C  Sn22      1.0  0.09548  0.47168  0.18812  1.0000
  C  Sn23      1.0  0.05966  0.47112  0.14668  1.0000
  C   C48       1.0  0.04575  0.49177  0.22431  1.0000
  C  Sn24      1.0  0.06690  0.51299  0.34250  1.0000
  O  Te21      1.0  0.12437  0.53456  0.50168  1.0000
  O  Te22      1.0  0.10998  0.45125  0.11217  1.0000
  O  Te23      1.0  0.03801  0.45008  0.02883  1.0000
  O  Te24      1.0  0.05242  0.53341  0.41841  1.0000
  Mg  Mg11      1.0  0.07617  0.42668  0.95949  1.0000
  Mg  Mg12      1.0  0.09249  0.55775  0.57106  1.0000
  C  Sn25      1.0  0.43294  0.03226  0.29919  1.0000
  C   C49       1.0  0.46074  0.02723  0.22492  1.0000
  C  Sn26      1.0  0.49295  0.05999  0.16297  1.0000
  C  Sn27      1.0  0.49750  0.09859  0.17558  1.0000
  C   C50       1.0  0.46972  0.10360  0.24982  1.0000
  C  Sn28      1.0  0.43749  0.07086  0.31179  1.0000
  O  Te25      1.0  0.90105  0.99909  0.36027  1.0000
  O  Te26      1.0  0.52035  0.05422  0.08921  1.0000
  O  Te27      1.0  0.52951  0.13177  0.11441  1.0000
  O  Te28      1.0  0.41011  0.07661  0.38554  1.0000
  Mg  Mg13      1.0  0.55895  0.10870  0.02462  1.0000
  Mg  Mg14      1.0  0.37151  0.02216  0.45023  1.0000
  C  Sn29      1.0  0.52966  0.44232  0.32490  1.0000
  C   C51       1.0  0.50242  0.44872  0.24652  1.0000
  C  Sn30      1.0  0.46896  0.41666  0.18379  1.0000
  C  Sn31      1.0  0.46258  0.37737  0.19981  1.0000
  C   C52       1.0  0.48981  0.37097  0.27818  1.0000
  C  Sn32      1.0  0.52328  0.40302  0.34093  1.0000
  O  Te29      1.0  0.56290  0.47481  0.38669  1.0000
  O  Te30      1.0  0.44215  0.42381  0.10588  1.0000
  O  Te31      1.0  0.42931  0.34486  0.13794  1.0000
  O  Te32      1.0  0.55008  0.39589  0.41881  1.0000
  Mg  Mg15      1.0  0.40132  0.36980  0.04194  1.0000
  Mg  Mg16      1.0  0.59091  0.44987  0.48285  1.0000
  C  Sn33      1.0  0.94241  0.38487  0.36521  1.0000
  C   C53       1.0  0.90770  0.36847  0.28194  1.0000
  C  Sn34      1.0  0.90600  0.38817  0.16188  1.0000
  C  Sn35      1.0  0.93972  0.42502  0.12421  1.0000
  C   C54       1.0  0.97440  0.44140  0.20744  1.0000
  C  Sn36      1.0  0.97612  0.42172  0.32754  1.0000
  O  Te33      1.0  0.94343  0.36466  0.48478  1.0000
  O  Te34      1.0  0.87097  0.37120  0.08030  1.0000
  O  Te35      1.0  0.93867  0.44523  0.00454  1.0000
  O  Te36      1.0  0.01113  0.43867  0.40908  1.0000
  Mg  Mg17      1.0  0.89045  0.40981  0.92715  1.0000
  Mg  Mg18      1.0  0.99796  0.39981  0.56220  1.0000
  C  Sn37      1.0  0.60306  0.05677  0.19390  1.0000
  C   C55       1.0  0.56920  0.04241  0.27551  1.0000
  C  Sn38      1.0  0.56190  0.06887  0.34942  1.0000
  C  Sn39      1.0  0.58900  0.11055  0.34154  1.0000
  C   C56       1.0  0.62284  0.12489  0.25995  1.0000
  C  Sn40      1.0  0.63017  0.09846  0.18602  1.0000
  O  Te37      1.0  0.60976  0.02978  0.12089  1.0000
  O  Te38      1.0  0.52785  0.05381  0.43035  1.0000
  O  Te39      1.0  0.58228  0.13755  0.41464  1.0000
  O  Te40      1.0  0.66419  0.11350  0.10511  1.0000
  Mg  Mg19      1.0  0.53172  0.10253  0.51063  1.0000
  Mg  Mg20      1.0  0.66034  0.06481  0.02473  1.0000
  C  Sn41      1.0  0.60167  0.51928  0.10914  1.0000
  C   C57       1.0  0.63478  0.54500  0.19144  1.0000
  C  Sn42      1.0  0.62966  0.56090  0.31310  1.0000
  C  Sn43      1.0  0.59063  0.55088  0.35340  1.0000
  C   C58       1.0  0.55755  0.52517  0.27115  1.0000
  C  Sn44      1.0  0.56264  0.50925  0.14945  1.0000
  O  Te41      1.0  0.61376  0.50346  0.98794  1.0000
  O  Te42      1.0  0.66322  0.58656  0.39365  1.0000
  O  Te43      1.0  0.58483  0.56646  0.47471  1.0000
  O  Te44      1.0  0.52910  0.48361  0.06893  1.0000
  Mg  Mg21      1.0  0.63990  0.60010  0.54981  1.0000
  Mg  Mg22      1.0  0.55866  0.46977  0.91281  1.0000
  C  Sn45      1.0  0.91463  0.47219  0.30808  1.0000
  C   C59       1.0  0.94847  0.49992  0.23695  1.0000
  C  Sn46      1.0  0.94994  0.53378  0.17750  1.0000
  C  Sn47      1.0  0.91691  0.54006  0.18947  1.0000
  C   C60       1.0  0.88311  0.51234  0.26059  1.0000
  C  Sn48      1.0  0.88161  0.47847  0.32005  1.0000
  O  Te45      1.0  0.91382  0.43855  0.36669  1.0000
  O  Te46      1.0  0.98408  0.56108  0.10685  1.0000
  O  Te47      1.0  0.91776  0.57373  0.13078  1.0000
  O  Te48      1.0  0.84750  0.45119  0.39068  1.0000
  Mg  Mg23      1.0  0.97094  0.60232  0.04482  1.0000
  Mg  Mg24      1.0  0.86061  0.40995  0.45281  1.0000
  C  Sn49      1.0  0.51635  0.26891  0.19273  1.0000
  C   C61       1.0  0.48249  0.27185  0.21982  1.0000
  C  Sn50      1.0  0.44840  0.23926  0.27389  1.0000
  C  Sn51      1.0  0.44815  0.20299  0.30155  1.0000
  C   C62       1.0  0.48199  0.20007  0.27449  1.0000
  C  Sn52      1.0  0.51610  0.23264  0.22039  1.0000
  O  Te49      1.0  0.55010  0.30187  0.13868  1.0000
  O  Te50      1.0  0.41490  0.24291  0.30007  1.0000
  O  Te51      1.0  0.41435  0.17002  0.35564  1.0000
  O  Te52      1.0  0.54958  0.22900  0.19424  1.0000
  Mg  Mg25      1.0  0.37611  0.18967  0.37388  1.0000
  Mg  Mg26      1.0  0.58839  0.28223  0.12050  1.0000
  C  Sn53      1.0  0.79772  0.23482  0.20802  1.0000
  C   C63       1.0  0.80065  0.27233  0.21250  1.0000
  C  Sn54      1.0  0.76806  0.27596  0.25253  1.0000
  C  Sn55      1.0  0.73180  0.24137  0.28894  1.0000
  C   C64       1.0  0.72889  0.20389  0.28448  1.0000
  C  Sn56      1.0  0.76146  0.20023  0.24443  1.0000
  O  Te53      1.0  0.83068  0.23189  0.16770  1.0000
  O  Te54      1.0  0.77170  0.31378  0.25616  1.0000
  O  Te55      1.0  0.69883  0.24432  0.32928  1.0000
  O  Te56      1.0  0.75784  0.16244  0.24082  1.0000
  Mg  Mg27      1.0  0.71846  0.30238  0.31798  1.0000
  Mg  Mg28      1.0  0.81106  0.17380  0.17909  1.0000
  C  Sn57      1.0  0.75205  0.48432  0.17777  1.0000
  C   C65       1.0  0.78974  0.51849  0.19193  1.0000
  C  Sn58      1.0  0.79333  0.55442  0.23634  1.0000
  C  Sn59      1.0  0.75852  0.55623  0.26734  1.0000
  C   C66       1.0  0.72086  0.52208  0.25320  1.0000
  C  Sn60      1.0  0.71724  0.48613  0.20876  1.0000
  O  Te57      1.0  0.74916  0.44872  0.13322  1.0000
  O  Te58      1.0  0.83133  0.58818  0.24966  1.0000
  O  Te59      1.0  0.76143  0.59187  0.31191  1.0000
  O  Te60      1.0  0.67927  0.45238  0.19546  1.0000
  Mg  Mg29      1.0  0.81979  0.62976  0.31401  1.0000
  Mg  Mg30      1.0  0.69077  0.41078  0.13119  1.0000
  C  Sn61      1.0  0.48333  0.73248  0.19319  1.0000
  C   C67       1.0  0.51788  0.72932  0.19670  1.0000
  C  Sn62      1.0  0.55502  0.76243  0.23028  1.0000
  C  Sn63      1.0  0.55767  0.79948  0.26109  1.0000
  C   C68       1.0  0.52312  0.80263  0.25760  1.0000
  C  Sn64      1.0  0.48598  0.76953  0.22400  1.0000
  O  Te61      1.0  0.44652  0.69899  0.15937  1.0000
  O  Te62      1.0  0.58915  0.75854  0.23307  1.0000
  O  Te63      1.0  0.59452  0.83299  0.29493  1.0000
  O  Te64      1.0  0.45186  0.77341  0.22123  1.0000
  Mg  Mg31      1.0  0.63247  0.81273  0.28504  1.0000
  Mg  Mg32      1.0  0.40852  0.71923  0.16934  1.0000
  C  Sn65      1.0  0.22480  0.78714  0.26853  1.0000
  C   C69       1.0  0.26422  0.79559  0.29043  1.0000
  C  Sn66      1.0  0.27376  0.76523  0.28238  1.0000
  C  Sn67      1.0  0.24326  0.72560  0.25171  1.0000
  C   C70       1.0  0.20387  0.71717  0.22980  1.0000
  C  Sn68      1.0  0.19430  0.74751  0.23786  1.0000
  O  Te65      1.0  0.21595  0.81795  0.27708  1.0000
  O  Te66      1.0  0.31338  0.77441  0.30473  1.0000
  O  Te67      1.0  0.25214  0.69478  0.24317  1.0000
  O  Te68      1.0  0.15471  0.73835  0.21551  1.0000
  Mg  Mg33      1.0  0.31052  0.72219  0.28178  1.0000
  Mg  Mg34      1.0  0.15754  0.79055  0.23836  1.0000
  C  Sn69      1.0  0.24872  0.51526  0.21278  1.0000
  C   C71       1.0  0.21120  0.48086  0.22282  1.0000
  C  Sn70      1.0  0.20814  0.44441  0.26050  1.0000
  C  Sn71      1.0  0.24330  0.44231  0.28882  1.0000
  C   C72       1.0  0.28079  0.47670  0.27881  1.0000
  C  Sn72      1.0  0.28388  0.51316  0.24111  1.0000
  O  Te69      1.0  0.25107  0.55138  0.17494  1.0000
  O  Te70      1.0  0.17030  0.41042  0.26980  1.0000
  O  Te71      1.0  0.24092  0.40616  0.32668  1.0000
  O  Te72      1.0  0.32169  0.54714  0.23183  1.0000
  Mg  Mg35      1.0  0.18260  0.36813  0.32531  1.0000
  Mg  Mg36      1.0  0.30942  0.58945  0.17639  1.0000
  C  Sn73      1.0  0.56827  0.96916  0.81589  1.0000
  C   C73       1.0  0.54077  0.97445  0.73466  1.0000
  C  Sn74      1.0  0.50909  0.94201  0.66638  1.0000
  C  Sn75      1.0  0.50479  0.90346  0.67963  1.0000
  C   C74       1.0  0.53228  0.89817  0.76084  1.0000
  C  Sn76      1.0  0.56397  0.93060  0.82914  1.0000
  O  Te73      1.0  0.09962  0.00202  0.88323  1.0000
  O  Te74      1.0  0.48198  0.94805  0.58571  1.0000
  O  Te75      1.0  0.47332  0.87059  0.61220  1.0000
  O  Te76      1.0  0.59107  0.92458  0.90979  1.0000
  Mg  Mg37      1.0  0.44410  0.89394  0.51422  1.0000
  Mg  Mg38      1.0  0.62894  0.97866  0.98138  1.0000
  C  Sn77      1.0  0.54297  0.60195  0.71101  1.0000
  C   C75       1.0  0.52017  0.56550  0.77877  1.0000
  C  Sn78      1.0  0.48346  0.55594  0.83529  1.0000
  C  Sn79      1.0  0.46923  0.58337  0.82376  1.0000
  C   C76       1.0  0.49201  0.61979  0.75601  1.0000
  C  Sn80      1.0  0.52873  0.62938  0.69948  1.0000
  O  Te77      1.0  0.57958  0.61088  0.65528  1.0000
  O  Te78      1.0  0.46121  0.51932  0.90260  1.0000
  O  Te79      1.0  0.43258  0.57441  0.87956  1.0000
  O  Te80      1.0  0.55098  0.66597  0.63218  1.0000
  Mg  Mg39      1.0  0.41316  0.52077  0.96151  1.0000
  Mg  Mg40      1.0  0.59902  0.66454  0.57318  1.0000
  C  Sn81      1.0  0.08257  0.60146  0.61030  1.0000
  C   C77       1.0  0.08888  0.63393  0.69102  1.0000
  C  Sn82      1.0  0.06651  0.62793  0.80944  1.0000
  C  Sn83      1.0  0.03723  0.58866  0.84804  1.0000
  C   C78       1.0  0.03093  0.55622  0.76735  1.0000
  C  Sn84      1.0  0.05329  0.56219  0.64890  1.0000
  O  Te81      1.0  0.10528  0.60815  0.49234  1.0000
  O  Te82      1.0  0.07335  0.66086  0.88847  1.0000
  O  Te83      1.0  0.01451  0.58199  0.96610  1.0000
  O  Te84      1.0  0.04646  0.52928  0.56991  1.0000
  Mg  Mg41      1.0  0.02857  0.63671  0.04017  1.0000
  Mg  Mg42      1.0  0.08496  0.55366  0.41823  1.0000
  C  Sn85      1.0  0.41133  0.89749  0.87870  1.0000
  C   C79       1.0  0.37622  0.88427  0.79911  1.0000
  C  Sn86      1.0  0.37529  0.90647  0.68523  1.0000
  C  Sn87      1.0  0.41019  0.94263  0.65010  1.0000
  C   C80       1.0  0.44527  0.95583  0.72964  1.0000
  C  Sn88      1.0  0.44623  0.93365  0.84357  1.0000
  O  Te85      1.0  0.41158  0.87481  0.99210  1.0000
  O  Te86      1.0  0.33983  0.89265  0.60726  1.0000
  O  Te87      1.0  0.40991  0.96531  0.53660  1.0000
  O  Te88      1.0  0.48166  0.94745  0.92150  1.0000
  Mg  Mg43      1.0  0.35443  0.93406  0.46225  1.0000
  Mg  Mg44      1.0  0.46083  0.90632  0.06648  1.0000
  C  Sn89      1.0  0.38345  0.44407  0.87106  1.0000
  C   C81       1.0  0.36627  0.46043  0.78200  1.0000
  C  Sn90      1.0  0.38534  0.47973  0.66038  1.0000
  C  Sn91      1.0  0.42235  0.48274  0.62701  1.0000
  C   C82       1.0  0.43951  0.46639  0.71602  1.0000
  C  Sn92      1.0  0.42046  0.44708  0.83769  1.0000
  O  Te89      1.0  0.36386  0.42490  0.99209  1.0000
  O  Te90      1.0  0.36758  0.49586  0.57300  1.0000
  O  Te91      1.0  0.44193  0.50193  0.50586  1.0000
  O  Te92      1.0  0.43819  0.43096  0.92502  1.0000
  Mg  Mg45      1.0  0.40582  0.51910  0.42000  1.0000
  Mg  Mg46      1.0  0.39371  0.40795  0.07800  1.0000
  C  Sn93      1.0  0.05378  0.45369  0.68881  1.0000
  C   C83       1.0  0.04055  0.47478  0.76739  1.0000
  C  Sn94      1.0  0.06804  0.50966  0.83681  1.0000
  C  Sn95      1.0  0.10963  0.52376  0.82743  1.0000
  C   C84       1.0  0.12284  0.50267  0.74887  1.0000
  C  Sn96      1.0  0.09537  0.46779  0.67944  1.0000
  O  Te93      1.0  0.02576  0.41890  0.62027  1.0000
  O  Te94      1.0  0.05409  0.53023  0.91477  1.0000
  O  Te95      1.0  0.13765  0.55858  0.89606  1.0000
  O  Te96      1.0  0.10930  0.44723  0.60150  1.0000
  Mg  Mg47      1.0  0.10395  0.57614  0.98928  1.0000
  Mg  Mg48      1.0  0.05947  0.40133  0.52689  1.0000
  C  Sn97      1.0  0.43091  0.03075  0.82499  1.0000
  C   C85       1.0  0.45578  0.02476  0.73772  1.0000
  C  Sn98      1.0  0.48476  0.05647  0.66092  1.0000
  C  Sn99      1.0  0.48899  0.09498  0.67163  1.0000
  C   C86       1.0  0.46414  0.10096  0.75886  1.0000
  C  Sn100     1.0  0.43514  0.06926  0.83569  1.0000
  O  Te97      1.0  0.90223  0.99862  0.90081  1.0000
  O  Te98      1.0  0.50927  0.04975  0.57434  1.0000
  O  Te99      1.0  0.51779  0.12712  0.59571  1.0000
  O  Te100     1.0  0.41065  0.07597  0.92225  1.0000
  Mg  Mg49      1.0  0.54406  0.10300  0.49204  1.0000
  Mg  Mg50      1.0  0.36960  0.02301  0.00464  1.0000
  C  Sn101     1.0  0.45253  0.39694  0.71261  1.0000
  C   C87       1.0  0.47565  0.43307  0.78263  1.0000
  C  Sn102     1.0  0.51288  0.44260  0.84091  1.0000
  C  Sn103     1.0  0.52732  0.41547  0.82889  1.0000
  C   C88       1.0  0.50420  0.37937  0.75889  1.0000
  C  Sn104     1.0  0.46696  0.36981  0.70059  1.0000
  O  Te101     1.0  0.41539  0.38803  0.65515  1.0000
  O  Te102     1.0  0.53546  0.47889  0.91046  1.0000
  O  Te103     1.0  0.56448  0.42440  0.88643  1.0000
  O  Te104     1.0  0.44440  0.33355  0.63106  1.0000
  Mg  Mg51      1.0  0.58418  0.47754  0.97115  1.0000
  Mg  Mg52      1.0  0.39568  0.33488  0.57027  1.0000
  C  Sn105     1.0  0.91172  0.39797  0.61594  1.0000
  C   C89       1.0  0.90761  0.36545  0.69389  1.0000
  C  Sn106     1.0  0.93257  0.37144  0.80921  1.0000
  C  Sn107     1.0  0.96223  0.41076  0.84747  1.0000
  C   C90       1.0  0.96633  0.44326  0.76956  1.0000
  C  Sn108     1.0  0.94139  0.43729  0.65421  1.0000
  O  Te105     1.0  0.88645  0.39128  0.50107  1.0000
  O  Te106     1.0  0.92790  0.33845  0.88550  1.0000
  O  Te107     1.0  0.98752  0.41742  0.96245  1.0000
  O  Te108     1.0  0.94604  0.47025  0.57795  1.0000
  Mg  Mg53      1.0  0.96324  0.36315  0.03354  1.0000
  Mg  Mg54      1.0  0.90444  0.44586  0.42995  1.0000
  C  Sn109     1.0  0.61040  0.08301  0.64395  1.0000
  C   C91       1.0  0.61825  0.11674  0.72020  1.0000
  C  Sn110     1.0  0.59504  0.11314  0.83400  1.0000
  C  Sn111     1.0  0.56335  0.07502  0.87245  1.0000
  C   C92       1.0  0.55551  0.04132  0.79624  1.0000
  C  Sn112     1.0  0.57870  0.04490  0.68240  1.0000
  O  Te109     1.0  0.63398  0.08732  0.53056  1.0000
  O  Te110     1.0  0.60345  0.14729  0.90862  1.0000
  O  Te111     1.0  0.53976  0.07074  0.98594  1.0000
  O  Te112     1.0  0.57031  0.01078  0.60783  1.0000
  Mg  Mg55      1.0  0.55665  0.12636  0.05502  1.0000
  Mg  Mg56      1.0  0.61083  0.03193  0.46145  1.0000
  C  Sn113     1.0  0.57316  0.49934  0.68224  1.0000
  C   C93       1.0  0.55779  0.51891  0.75868  1.0000
  C  Sn114     1.0  0.58351  0.55582  0.82022  1.0000
  C  Sn115     1.0  0.62546  0.57356  0.80497  1.0000
  C   C94       1.0  0.64080  0.55400  0.72855  1.0000
  C  Sn116     1.0  0.61511  0.51708  0.66699  1.0000
  O  Te113     1.0  0.54689  0.46247  0.62161  1.0000
  O  Te114     1.0  0.56744  0.57480  0.89619  1.0000
  O  Te115     1.0  0.65173  0.61046  0.86568  1.0000
  O  Te116     1.0  0.63115  0.49810  0.59104  1.0000
  Mg  Mg57      1.0  0.61544  0.62465  0.95913  1.0000
  Mg  Mg58      1.0  0.58318  0.44827  0.52800  1.0000
  C  Sn117     1.0  0.94211  0.54541  0.68066  1.0000
  C   C95       1.0  0.95678  0.52525  0.76248  1.0000
  C  Sn118     1.0  0.93062  0.49143  0.83788  1.0000
  C  Sn119     1.0  0.88891  0.47746  0.83129  1.0000
  C   C96       1.0  0.87426  0.49762  0.74949  1.0000
  C  Sn120     1.0  0.90040  0.53144  0.67408  1.0000
  O  Te117     1.0  0.96881  0.57915  0.60615  1.0000
  O  Te118     1.0  0.94599  0.47178  0.91899  1.0000
  O  Te119     1.0  0.86221  0.44369  0.90589  1.0000
  O  Te120     1.0  0.88504  0.55108  0.59299  1.0000
  Mg  Mg59      1.0  0.89132  0.42739  0.00154  1.0000
  Mg  Mg60      1.0  0.93341  0.59572  0.51034  1.0000
  C  Sn121     1.0  0.44206  0.22571  0.84580  1.0000
  C   C97       1.0  0.47169  0.26469  0.81437  1.0000
  C  Sn122     1.0  0.50504  0.27158  0.73938  1.0000
  C  Sn123     1.0  0.50885  0.23883  0.69480  1.0000
  C   C98       1.0  0.47923  0.19988  0.72621  1.0000
  C  Sn124     1.0  0.44587  0.19296  0.80122  1.0000
  O  Te121     1.0  0.40897  0.21952  0.92088  1.0000
  O  Te122     1.0  0.53428  0.31082  0.70925  1.0000
  O  Te123     1.0  0.54198  0.24506  0.61967  1.0000
  O  Te124     1.0  0.41664  0.15375  0.83133  1.0000
  Mg  Mg61      1.0  0.57383  0.30395  0.60412  1.0000
  Mg  Mg62      1.0  0.37707  0.16058  0.93638  1.0000
  C  Sn125     1.0  0.75284  0.26775  0.78851  1.0000
  C   C99       1.0  0.79230  0.27592  0.77796  1.0000
  C  Sn126     1.0  0.80027  0.24620  0.73581  1.0000
  C  Sn127     1.0  0.76815  0.20750  0.70345  1.0000
  C   C100      1.0  0.72872  0.19934  0.71399  1.0000
  C  Sn128     1.0  0.72072  0.22905  0.75615  1.0000
  O  Te125     1.0  0.74557  0.29792  0.83084  1.0000
  O  Te126     1.0  0.83997  0.25508  0.72609  1.0000
  O  Te127     1.0  0.77546  0.17732  0.66110  1.0000
  O  Te128     1.0  0.68105  0.22018  0.76586  1.0000
  Mg  Mg63      1.0  0.83461  0.20400  0.66370  1.0000
  Mg  Mg64      1.0  0.68638  0.27125  0.82816  1.0000
  C  Sn129     1.0  0.73171  0.48903  0.81647  1.0000
  C   C101      1.0  0.72303  0.51980  0.79553  1.0000
  C  Sn130     1.0  0.75131  0.55604  0.73732  1.0000
  C  Sn131     1.0  0.78904  0.56164  0.69918  1.0000
  C   C102      1.0  0.79770  0.53088  0.72010  1.0000
  C  Sn132     1.0  0.76944  0.49463  0.77833  1.0000
  O  Te129     1.0  0.70299  0.45305  0.87482  1.0000
  O  Te130     1.0  0.74195  0.58636  0.71743  1.0000
  O  Te131     1.0  0.81777  0.59765  0.64080  1.0000
  O  Te132     1.0  0.77878  0.46432  0.79820  1.0000
  Mg  Mg65      1.0  0.79096  0.62998  0.63423  1.0000
  Mg  Mg66      1.0  0.72979  0.42068  0.88132  1.0000
  C  Sn133     1.0  0.47831  0.75128  0.78860  1.0000
  C   C103      1.0  0.50951  0.79073  0.80177  1.0000
  C  Sn134     1.0  0.54923  0.79991  0.79013  1.0000
  C  Sn135     1.0  0.55796  0.76902  0.76471  1.0000
  C   C104      1.0  0.52678  0.72960  0.75153  1.0000
  C  Sn136     1.0  0.48704  0.72039  0.76318  1.0000
  O  Te133     1.0  0.43882  0.74280  0.80061  1.0000
  O  Te134     1.0  0.57991  0.83957  0.80372  1.0000
  O  Te135     1.0  0.59749  0.77753  0.75271  1.0000
  O  Te136     1.0  0.45637  0.68076  0.74958  1.0000
  Mg  Mg67      1.0  0.62890  0.83612  0.77906  1.0000
  Mg  Mg68      1.0  0.40737  0.68417  0.77415  1.0000
  C  Sn137     1.0  0.24735  0.72967  0.75779  1.0000
  C   C105      1.0  0.20768  0.72060  0.77058  1.0000
  C  Sn138     1.0  0.19779  0.75077  0.76086  1.0000
  C  Sn139     1.0  0.22819  0.79083  0.73778  1.0000
  C   C106      1.0  0.26783  0.79987  0.72498  1.0000
  C  Sn140     1.0  0.27775  0.76972  0.73471  1.0000
  O  Te137     1.0  0.25655  0.69903  0.76785  1.0000
  O  Te138     1.0  0.15792  0.74098  0.77404  1.0000
  O  Te139     1.0  0.21896  0.82147  0.72773  1.0000
  O  Te140     1.0  0.31759  0.77950  0.72152  1.0000
  Mg  Mg69      1.0  0.16034  0.79318  0.75260  1.0000
  Mg  Mg70      1.0  0.31521  0.72732  0.74287  1.0000
  C  Sn141     1.0  0.23242  0.43700  0.69306  1.0000
  C   C107      1.0  0.27004  0.47131  0.70594  1.0000
  C  Sn142     1.0  0.27363  0.50697  0.75343  1.0000
  C  Sn143     1.0  0.23889  0.50837  0.78887  1.0000
  C   C108      1.0  0.20130  0.47407  0.77601  1.0000
  C  Sn144     1.0  0.19768  0.43839  0.72850  1.0000
  O  Te141     1.0  0.22954  0.40167  0.64537  1.0000
  O  Te142     1.0  0.31157  0.54089  0.76540  1.0000
  O  Te143     1.0  0.24180  0.54373  0.83658  1.0000
  O  Te144     1.0  0.15977  0.40449  0.71655  1.0000
  Mg  Mg71      1.0  0.30006  0.58197  0.83523  1.0000
  Mg  Mg72      1.0  0.17125  0.36339  0.64680  1.0000
