data_image0
_chemical_formula_structural       NC2NCH2NC2NCH2NC2NCH2NC2NCH2NC2NCH2NC2NCH2NC2NCH2NC2NCH2NC2NCH2NC2NCH2NC2NCH2NC2NCH2C2Sn2C2HTe2HMgC2Sn2C2HTe2HMgC2Sn2C2HTe2HMgC2Sn2C2HTe2HMgC2Sn2C2HTe2HMgC2Sn2C2HTe2HMgC2Sn2C2HTe2HMgC2Sn2C2HTe2HMgC2Sn2C2HTe2HMgC2Sn2C2HTe2HMgC2Sn2C2HTe2HMgC2Sn2C2HTe2HMgC2Sn2C2HTe2HMgC2Sn2C2HTe2HMgC2Sn2C2HTe2HMgC2Sn2C2HTe2HMgC2Sn2C2HTe2HMgC2Sn2C2HTe2HMgC2Sn2C2HTe2HMgC2Sn2C2HTe2HMgC2Sn2C2HTe2HMgC2Sn2C2HTe2HMgC2Sn2C2HTe2HMgC2Sn2C2HTe2HMgC2Sn2C2HTe2HMgC2Sn2C2HTe2HMgC2Sn2C2HTe2HMgC2Sn2C2HTe2HMgC2Sn2C2HTe2HMgC2Sn2C2HTe2HMgC2Sn2C2HTe2HMgC2Sn2C2HTe2HMgC2Sn2C2HTe2HMgC2Sn2C2HTe2HMgC2Sn2C2HTe2HMgC2Sn2C2HTe2HMg
_chemical_formula_sum              "N24 C180 H96 Sn72 Te72 Mg36"
_cell_length_a       38.5696
_cell_length_b       38.6334
_cell_length_c       9.66315
_cell_angle_alpha    89.2241
_cell_angle_beta     91.4641
_cell_angle_gamma    119.951

_symmetry_space_group_name_H-M    'P1'
_space_group_IT_number       1

loop_
  _space_group_symop_operation_xyz
  'x, y, z'

loop_
  _atom_site_type_symbol
  _atom_site_label
  _atom_site_symmetry_multiplicity
  _atom_site_fract_x
  _atom_site_fract_y
  _atom_site_fract_z
  _atom_site_occupancy
  N   N1        1.0  0.45685  0.13131  0.25537  1.0000
  C   C1        1.0  0.48708  0.16695  0.24061  1.0000
  C   C2        1.0  0.47414  0.30819  0.27010  1.0000
  N   N2        1.0  0.50453  0.34403  0.27092  1.0000
  C   C3        1.0  0.48243  0.99783  0.25061  1.0000
  H   H1        1.0  0.51756  0.17220  0.22592  1.0000
  H   H2        1.0  0.44340  0.30276  0.27871  1.0000
  N   N3        1.0  0.87306  0.32408  0.25381  1.0000
  C   C4        1.0  0.83718  0.31875  0.24738  1.0000
  C   C5        1.0  0.69569  0.16427  0.26051  1.0000
  N   N4        1.0  0.66015  0.15909  0.27409  1.0000
  C   C6        1.0  0.00457  0.48423  0.24605  1.0000
  H   H3        1.0  0.83186  0.34423  0.24174  1.0000
  H   H4        1.0  0.70076  0.13871  0.25363  1.0000
  N   N5        1.0  0.67679  0.54690  0.24373  1.0000
  C   C7        1.0  0.68170  0.51649  0.22577  1.0000
  C   C8        1.0  0.83575  0.52796  0.24031  1.0000
  N   N6        1.0  0.84127  0.49761  0.24853  1.0000
  C   C9        1.0  0.51726  0.52019  0.25027  1.0000
  H   H5        1.0  0.65593  0.48616  0.21300  1.0000
  H   H6        1.0  0.86112  0.55878  0.24291  1.0000
  N   N7        1.0  0.54746  0.87098  0.24636  1.0000
  C   C10       1.0  0.51664  0.83551  0.23474  1.0000
  C   C11       1.0  0.52869  0.69355  0.24033  1.0000
  N   N8        1.0  0.49846  0.65804  0.25662  1.0000
  C   C12       1.0  0.52080  0.00357  0.25223  1.0000
  H   H7        1.0  0.48603  0.83078  0.23003  1.0000
  H   H8        1.0  0.55939  0.69874  0.23320  1.0000
  N   N9        1.0  0.13027  0.67673  0.24870  1.0000
  C   C13       1.0  0.16593  0.68149  0.25473  1.0000
  C   C14       1.0  0.30829  0.83556  0.25789  1.0000
  N   N10       1.0  0.34412  0.84139  0.27824  1.0000
  C   C15       1.0  0.99827  0.51649  0.24595  1.0000
  H   H9        1.0  0.17056  0.65564  0.26364  1.0000
  H   H10       1.0  0.30265  0.86057  0.24031  1.0000
  N   N11       1.0  0.32462  0.45218  0.25328  1.0000
  C   C16       1.0  0.31951  0.48282  0.24782  1.0000
  C   C17       1.0  0.16570  0.47097  0.26697  1.0000
  N   N12       1.0  0.16078  0.50165  0.27268  1.0000
  C   C18       1.0  0.48514  0.48163  0.25210  1.0000
  H   H11       1.0  0.34515  0.51344  0.24334  1.0000
  H   H12       1.0  0.14004  0.44030  0.26727  1.0000
  N   N13       1.0  0.45145  0.12853  0.77137  1.0000
  C   C19       1.0  0.48128  0.16394  0.74936  1.0000
  C   C20       1.0  0.47106  0.30667  0.78250  1.0000
  N   N14       1.0  0.50169  0.34226  0.77453  1.0000
  C   C21       1.0  0.47915  0.99646  0.75515  1.0000
  H   H13       1.0  0.51116  0.16874  0.72591  1.0000
  H   H14       1.0  0.44089  0.30196  0.79930  1.0000
  N   N15       1.0  0.87061  0.32269  0.74388  1.0000
  C   C22       1.0  0.83452  0.31683  0.74199  1.0000
  C   C23       1.0  0.69256  0.16299  0.75126  1.0000
  N   N16       1.0  0.65726  0.15829  0.76735  1.0000
  C   C24       1.0  0.00118  0.48356  0.74511  1.0000
  H   H15       1.0  0.82884  0.34206  0.74517  1.0000
  H   H16       1.0  0.69745  0.13731  0.74536  1.0000
  N   N17       1.0  0.67588  0.55110  0.75261  1.0000
  C   C25       1.0  0.68114  0.52053  0.75668  1.0000
  C   C26       1.0  0.83513  0.53160  0.74551  1.0000
  N   N18       1.0  0.84051  0.50150  0.76758  1.0000
  C   C27       1.0  0.51422  0.51920  0.75469  1.0000
  H   H17       1.0  0.65555  0.48992  0.76364  1.0000
  H   H18       1.0  0.86041  0.56175  0.72591  1.0000
  N   N19       1.0  0.54497  0.87036  0.77169  1.0000
  C   C28       1.0  0.51422  0.83488  0.75808  1.0000
  C   C29       1.0  0.52518  0.69215  0.78085  1.0000
  N   N20       1.0  0.49442  0.65656  0.77407  1.0000
  C   C30       1.0  0.51779  0.00292  0.75583  1.0000
  H   H19       1.0  0.48387  0.83030  0.74111  1.0000
  H   H20       1.0  0.55578  0.69699  0.79202  1.0000
  N   N21       1.0  0.12835  0.67553  0.74874  1.0000
  C   C31       1.0  0.16391  0.68119  0.72976  1.0000
  C   C32       1.0  0.30505  0.83550  0.75658  1.0000
  N   N22       1.0  0.34079  0.84050  0.75835  1.0000
  C   C33       1.0  0.99551  0.51617  0.74381  1.0000
  H   H21       1.0  0.16914  0.65614  0.71092  1.0000
  H   H22       1.0  0.29993  0.86102  0.76330  1.0000
  N   N23       1.0  0.32180  0.45022  0.75165  1.0000
  C   C34       1.0  0.31639  0.48064  0.74473  1.0000
  C   C35       1.0  0.16173  0.46822  0.75119  1.0000
  N   N24       1.0  0.15684  0.49872  0.76673  1.0000
  C   C36       1.0  0.48269  0.48019  0.75533  1.0000
  H   H23       1.0  0.34191  0.51136  0.74196  1.0000
  H   H24       1.0  0.13607  0.43767  0.74150  1.0000
  C   C37       1.0  0.50663  0.90979  0.13886  1.0000
  C   C38       1.0  0.53569  0.90442  0.20939  1.0000
  C  Sn1       1.0  0.56136  0.93254  0.30679  1.0000
  C  Sn2       1.0  0.55779  0.96661  0.33389  1.0000
  C   C39       1.0  0.52860  0.97169  0.26284  1.0000
  C   C40       1.0  0.50307  0.94338  0.16556  1.0000
  H   H25       1.0  0.48687  0.88787  0.06364  1.0000
  O  Te1       1.0  0.59024  0.92672  0.37629  1.0000
  O  Te2       1.0  0.58304  0.99517  0.43075  1.0000
  H   H26       1.0  0.48056  0.94753  0.11103  1.0000
  Mg  Mg1       1.0  0.61769  0.97399  0.49889  1.0000
  C   C41       1.0  0.47851  0.58263  0.35682  1.0000
  C   C42       1.0  0.49977  0.61822  0.28273  1.0000
  C  Sn3       1.0  0.52767  0.62214  0.18535  1.0000
  C  Sn4       1.0  0.53434  0.58977  0.16190  1.0000
  C   C43       1.0  0.51290  0.55428  0.23648  1.0000
  C   C44       1.0  0.48506  0.55068  0.33372  1.0000
  H   H27       1.0  0.45695  0.57984  0.43200  1.0000
  O  Te3       1.0  0.54867  0.65791  0.11227  1.0000
  O  Te4       1.0  0.56204  0.59287  0.06514  1.0000
  H   H28       1.0  0.46858  0.52312  0.39100  1.0000
  Mg  Mg2       1.0  0.58956  0.64742  0.99134  1.0000
  C   C45       1.0  0.09229  0.59815  0.13988  1.0000
  C   C46       1.0  0.09701  0.63176  0.20948  1.0000
  C  Sn5       1.0  0.06846  0.62811  0.30361  1.0000
  C  Sn6       1.0  0.03459  0.59006  0.32831  1.0000
  C   C47       1.0  0.03016  0.55661  0.25822  1.0000
  C   C48       1.0  0.05890  0.56061  0.16422  1.0000
  H   H29       1.0  0.11453  0.60124  0.06720  1.0000
  O  Te5       1.0  0.07363  0.66200  0.37222  1.0000
  O  Te6       1.0  0.00561  0.58555  0.42188  1.0000
  H   H30       1.0  0.05525  0.53458  0.11041  1.0000
  Mg  Mg3       1.0  0.02596  0.64063  0.49003  1.0000
  C   C49       1.0  0.42165  0.89657  0.36387  1.0000
  C   C50       1.0  0.38451  0.88251  0.29677  1.0000
  C  Sn7       1.0  0.37872  0.90654  0.20039  1.0000
  C  Sn8       1.0  0.41078  0.94535  0.17083  1.0000
  C   C51       1.0  0.44783  0.95912  0.23844  1.0000
  C   C52       1.0  0.45329  0.93483  0.33474  1.0000
  H   H31       1.0  0.42589  0.87777  0.43832  1.0000
  O  Te7       1.0  0.34142  0.89204  0.13433  1.0000
  O  Te8       1.0  0.40582  0.96998  0.07492  1.0000
  H   H32       1.0  0.48206  0.94571  0.38660  1.0000
  Mg  Mg4       1.0  0.34938  0.93683  0.01177  1.0000
  C   C53       1.0  0.40287  0.49442  0.14527  1.0000
  C   C54       1.0  0.36947  0.46446  0.21236  1.0000
  C  Sn9       1.0  0.37364  0.43865  0.30514  1.0000
  C  Sn10      1.0  0.41199  0.44299  0.33104  1.0000
  C   C55       1.0  0.44522  0.47308  0.26348  1.0000
  C   C56       1.0  0.44071  0.49873  0.17081  1.0000
  H   H33       1.0  0.39939  0.51428  0.07363  1.0000
  O  Te9       1.0  0.33995  0.40887  0.37124  1.0000
  O  Te10      1.0  0.41700  0.41762  0.42331  1.0000
  H   H34       1.0  0.46658  0.52194  0.11894  1.0000
  Mg  Mg5       1.0  0.36204  0.38161  0.48806  1.0000
  C   C57       1.0  0.08570  0.52067  0.36088  1.0000
  C   C58       1.0  0.05310  0.49750  0.27253  1.0000
  C  Sn11      1.0  0.05476  0.47102  0.17952  1.0000
  C  Sn12      1.0  0.08975  0.46773  0.17515  1.0000
  C   C59       1.0  0.12219  0.49102  0.26403  1.0000
  C   C60       1.0  0.12021  0.51743  0.35667  1.0000
  H   H35       1.0  0.08416  0.54109  0.43261  1.0000
  O  Te11      1.0  0.02193  0.44811  0.09195  1.0000
  O  Te12      1.0  0.09221  0.44149  0.08323  1.0000
  H   H36       1.0  0.14544  0.53535  0.42512  1.0000
  Mg  Mg6       1.0  0.04593  0.41636  0.98464  1.0000
  C   C61       1.0  0.43980  0.03693  0.33967  1.0000
  C   C62       1.0  0.46440  0.02947  0.25618  1.0000
  C  Sn13      1.0  0.49010  0.05852  0.16348  1.0000
  C  Sn14      1.0  0.49114  0.09572  0.15447  1.0000
  C   C63       1.0  0.46643  0.10290  0.23852  1.0000
  C   C64       1.0  0.44082  0.07361  0.33088  1.0000
  H   H37       1.0  0.42000  0.01428  0.41120  1.0000
  O  Te13      1.0  0.51447  0.05057  0.08079  1.0000
  O  Te14      1.0  0.51656  0.12529  0.06275  1.0000
  H   H38       1.0  0.42179  0.07941  0.39558  1.0000
  Mg  Mg7       1.0  0.55032  0.10006  0.97173  1.0000
  C   C65       1.0  0.52718  0.42086  0.36104  1.0000
  C   C66       1.0  0.50367  0.38405  0.29547  1.0000
  C  Sn15      1.0  0.47300  0.37863  0.20259  1.0000
  C  Sn16      1.0  0.46581  0.41070  0.17502  1.0000
  C   C67       1.0  0.48952  0.44741  0.24108  1.0000
  C   C68       1.0  0.52012  0.45251  0.33388  1.0000
  H   H39       1.0  0.55088  0.42481  0.43278  1.0000
  O  Te15      1.0  0.44979  0.34166  0.13801  1.0000
  O  Te16      1.0  0.43537  0.40609  0.08261  1.0000
  H   H40       1.0  0.53834  0.48101  0.38456  1.0000
  Mg  Mg8       1.0  0.41180  0.35004  0.02032  1.0000
  C   C69       1.0  0.96635  0.40304  0.34486  1.0000
  C   C70       1.0  0.97355  0.43445  0.25485  1.0000
  C  Sn17      1.0  0.94459  0.43006  0.15591  1.0000
  C  Sn18      1.0  0.90774  0.39352  0.14718  1.0000
  C   C71       1.0  0.90081  0.36229  0.23776  1.0000
  C   C72       1.0  0.93001  0.36700  0.33635  1.0000
  H   H41       1.0  0.98893  0.40669  0.42119  1.0000
  O  Te17      1.0  0.95228  0.46174  0.06676  1.0000
  O  Te18      1.0  0.87827  0.38834  0.04929  1.0000
  H   H42       1.0  0.92442  0.34268  0.40608  1.0000
  Mg  Mg9       1.0  0.90905  0.43996  0.95076  1.0000
  C   C73       1.0  0.58484  0.10405  0.37070  1.0000
  C   C74       1.0  0.62019  0.11809  0.29754  1.0000
  C  Sn19      1.0  0.62336  0.09417  0.19724  1.0000
  C  Sn20      1.0  0.59047  0.05548  0.16987  1.0000
  C   C75       1.0  0.55523  0.04171  0.24354  1.0000
  C   C76       1.0  0.55239  0.06590  0.34372  1.0000
  H   H43       1.0  0.58263  0.12277  0.44816  1.0000
  O  Te19      1.0  0.65889  0.10866  0.12514  1.0000
  O  Te20      1.0  0.59283  0.03095  0.07013  1.0000
  H   H44       1.0  0.52501  0.05502  0.40028  1.0000
  Mg  Mg10      1.0  0.65386  0.06378  0.99913  1.0000
  C   C77       1.0  0.62144  0.56688  0.33877  1.0000
  C   C78       1.0  0.63598  0.54632  0.26369  1.0000
  C  Sn21      1.0  0.61130  0.51745  0.16666  1.0000
  C  Sn22      1.0  0.57133  0.50907  0.14460  1.0000
  C   C79       1.0  0.55708  0.52982  0.22017  1.0000
  C   C80       1.0  0.58203  0.55865  0.31703  1.0000
  H   H45       1.0  0.64075  0.58920  0.41366  1.0000
  O  Te21      1.0  0.62630  0.49717  0.09257  1.0000
  O  Te22      1.0  0.54602  0.48037  0.04822  1.0000
  H   H46       1.0  0.57077  0.57458  0.37509  1.0000
  Mg  Mg11      1.0  0.58652  0.46042  0.97268  1.0000
  C   C81       1.0  0.91686  0.47854  0.34911  1.0000
  C   C82       1.0  0.94985  0.50317  0.26849  1.0000
  C  Sn23      1.0  0.94844  0.53093  0.17775  1.0000
  C  Sn24      1.0  0.91333  0.53403  0.16780  1.0000
  C   C83       1.0  0.88049  0.50927  0.24897  1.0000
  C   C84       1.0  0.88221  0.48158  0.33939  1.0000
  H   H47       1.0  0.91819  0.45713  0.41913  1.0000
  O  Te23      1.0  0.98167  0.55530  0.09793  1.0000
  O  Te24      1.0  0.91112  0.56153  0.07800  1.0000
  H   H48       1.0  0.85668  0.46254  0.40186  1.0000
  Mg  Mg12      1.0  0.97045  0.58788  0.99067  1.0000
  C   C85       1.0  0.43997  0.20471  0.27836  1.0000
  C   C86       1.0  0.47295  0.20090  0.24513  1.0000
  C  Sn25      1.0  0.51025  0.23487  0.22495  1.0000
  C  Sn26      1.0  0.51450  0.27334  0.23839  1.0000
  C   C87       1.0  0.48132  0.27684  0.27177  1.0000
  C   C88       1.0  0.44414  0.24265  0.29170  1.0000
  H   H49       1.0  0.41120  0.17826  0.29386  1.0000
  O  Te25      1.0  0.54289  0.23052  0.19175  1.0000
  O  Te26      1.0  0.55143  0.30780  0.21883  1.0000
  H   H50       1.0  0.41862  0.24561  0.31751  1.0000
  Mg  Mg13      1.0  0.58705  0.28643  0.17500  1.0000
  C   C89       1.0  0.75229  0.27012  0.25174  1.0000
  C   C90       1.0  0.79228  0.27947  0.25762  1.0000
  C  Sn27      1.0  0.80190  0.24907  0.25727  1.0000
  C  Sn28      1.0  0.77083  0.20859  0.25087  1.0000
  C   C91       1.0  0.73092  0.19955  0.24491  1.0000
  C   C92       1.0  0.72163  0.23020  0.24536  1.0000
  H   H51       1.0  0.74510  0.29384  0.25201  1.0000
  O  Te27      1.0  0.84201  0.25894  0.26325  1.0000
  O  Te28      1.0  0.77960  0.17762  0.25032  1.0000
  H   H52       1.0  0.69066  0.22295  0.24072  1.0000
  Mg  Mg14      1.0  0.83884  0.20617  0.25994  1.0000
  C   C93       1.0  0.76756  0.56346  0.24101  1.0000
  C   C94       1.0  0.72963  0.52992  0.22196  1.0000
  C  Sn29      1.0  0.72531  0.49190  0.21250  1.0000
  C  Sn30      1.0  0.75966  0.48747  0.22236  1.0000
  C   C95       1.0  0.79747  0.52121  0.24152  1.0000
  C   C96       1.0  0.80145  0.55911  0.25080  1.0000
  H   H53       1.0  0.77064  0.59278  0.24827  1.0000
  O  Te29      1.0  0.68720  0.45871  0.19341  1.0000
  O  Te30      1.0  0.75620  0.44982  0.21330  1.0000
  H   H54       1.0  0.83082  0.58507  0.26564  1.0000
  Mg  Mg15      1.0  0.69786  0.41365  0.18718  1.0000
  C   C97       1.0  0.47968  0.75064  0.23074  1.0000
  C   C98       1.0  0.51047  0.79042  0.23753  1.0000
  C  Sn31      1.0  0.55043  0.79970  0.23664  1.0000
  C  Sn32      1.0  0.55962  0.76852  0.22876  1.0000
  C   C99       1.0  0.52859  0.72882  0.22191  1.0000
  C   C100      1.0  0.48872  0.71987  0.22291  1.0000
  H   H55       1.0  0.44882  0.74371  0.23144  1.0000
  O  Te31      1.0  0.58083  0.83960  0.24353  1.0000
  O  Te32      1.0  0.59929  0.77696  0.22764  1.0000
  H   H56       1.0  0.46488  0.68907  0.21757  1.0000
  Mg  Mg16      1.0  0.63025  0.83599  0.23894  1.0000
  C   C101      1.0  0.25082  0.72974  0.28278  1.0000
  C   C102      1.0  0.21103  0.72069  0.26780  1.0000
  C  Sn33      1.0  0.20205  0.75100  0.24061  1.0000
  C  Sn34      1.0  0.23357  0.79109  0.22821  1.0000
  C   C103      1.0  0.27328  0.79984  0.24327  1.0000
  C   C104      1.0  0.28192  0.76927  0.27051  1.0000
  H   H57       1.0  0.25751  0.70610  0.30378  1.0000
  O  Te33      1.0  0.16213  0.74144  0.22599  1.0000
  O  Te34      1.0  0.22544  0.82196  0.20101  1.0000
  H   H58       1.0  0.31274  0.77629  0.28201  1.0000
  Mg  Mg17      1.0  0.16624  0.79392  0.18956  1.0000
  C   C105      1.0  0.25150  0.51860  0.25802  1.0000
  C   C106      1.0  0.21346  0.48463  0.25370  1.0000
  C  Sn35      1.0  0.20929  0.44656  0.25400  1.0000
  C  Sn36      1.0  0.24390  0.44253  0.25877  1.0000
  C   C107      1.0  0.28183  0.47670  0.26318  1.0000
  C   C108      1.0  0.28566  0.51465  0.26278  1.0000
  H   H59       1.0  0.25447  0.54796  0.25779  1.0000
  O  Te35      1.0  0.17105  0.41294  0.24959  1.0000
  O  Te36      1.0  0.24059  0.40485  0.25924  1.0000
  H   H60       1.0  0.31512  0.54095  0.26622  1.0000
  Mg  Mg18      1.0  0.18200  0.36800  0.25212  1.0000
  C   C109      1.0  0.56643  0.94766  0.85116  1.0000
  C   C110      1.0  0.54530  0.91129  0.78094  1.0000
  C  Sn37      1.0  0.51518  0.90512  0.68430  1.0000
  C  Sn38      1.0  0.50614  0.93599  0.65767  1.0000
  C   C111      1.0  0.52747  0.97228  0.72839  1.0000
  C   C112      1.0  0.55754  0.97813  0.82491  1.0000
  H   H61       1.0  0.58971  0.95220  0.92579  1.0000
  O  Te37      1.0  0.49435  0.86860  0.61510  1.0000
  O  Te38      1.0  0.47620  0.93063  0.56157  1.0000
  H   H62       1.0  0.07383  0.00630  0.87920  1.0000
  Mg  Mg19      1.0  0.45615  0.87560  0.49358  1.0000
  C   C113      1.0  0.47477  0.56123  0.85843  1.0000
  C   C114      1.0  0.49959  0.55349  0.77717  1.0000
  C  Sn39      1.0  0.52739  0.58316  0.69083  1.0000
  C  Sn40      1.0  0.53033  0.62126  0.68601  1.0000
  C   C115      1.0  0.50538  0.62871  0.76777  1.0000
  C   C116      1.0  0.47766  0.59880  0.85377  1.0000
  H   H63       1.0  0.45334  0.53810  0.92502  1.0000
  O  Te39      1.0  0.55195  0.57492  0.61029  1.0000
  O  Te40      1.0  0.55786  0.65146  0.60067  1.0000
  H   H64       1.0  0.45847  0.60481  0.91674  1.0000
  Mg  Mg20      1.0  0.58476  0.62578  0.51034  1.0000
  C   C117      1.0  0.08952  0.59696  0.63577  1.0000
  C   C118      1.0  0.09456  0.63079  0.70477  1.0000
  C  Sn41      1.0  0.06633  0.62746  0.79970  1.0000
  C  Sn42      1.0  0.03246  0.58954  0.82585  1.0000
  C   C119      1.0  0.02770  0.55587  0.75636  1.0000
  C   C120      1.0  0.05613  0.55954  0.66154  1.0000
  H   H65       1.0  0.11152  0.59979  0.56247  1.0000
  O  Te41      1.0  0.07182  0.66156  0.86769  1.0000
  O  Te42      1.0  0.00379  0.58536  0.92024  1.0000
  H   H66       1.0  0.05223  0.53334  0.60820  1.0000
  Mg  Mg21      1.0  0.02451  0.64062  0.98706  1.0000
  C   C121      1.0  0.41812  0.89357  0.85155  1.0000
  C   C122      1.0  0.38124  0.88078  0.78401  1.0000
  C  Sn43      1.0  0.37585  0.90658  0.69495  1.0000
  C  Sn44      1.0  0.40803  0.94589  0.67327  1.0000
  C   C123      1.0  0.44482  0.95838  0.74125  1.0000
  C   C124      1.0  0.44989  0.93233  0.83019  1.0000
  H   H67       1.0  0.42206  0.87341  0.92031  1.0000
  O  Te43      1.0  0.33880  0.89333  0.62834  1.0000
  O  Te44      1.0  0.40346  0.97228  0.58477  1.0000
  H   H68       1.0  0.47845  0.94223  0.88240  1.0000
  Mg  Mg22      1.0  0.34727  0.94034  0.51764  1.0000
  C   C125      1.0  0.37989  0.43253  0.84863  1.0000
  C   C126      1.0  0.36317  0.45148  0.77057  1.0000
  C  Sn45      1.0  0.38566  0.47970  0.67020  1.0000
  C  Sn46      1.0  0.42564  0.48906  0.64777  1.0000
  C   C127      1.0  0.44209  0.46991  0.72634  1.0000
  C   C128      1.0  0.41931  0.44173  0.82654  1.0000
  H   H69       1.0  0.36227  0.41071  0.92610  1.0000
  O  Te45      1.0  0.36849  0.49837  0.59316  1.0000
  O  Te46      1.0  0.44879  0.51713  0.54809  1.0000
  H   H70       1.0  0.43226  0.42704  0.88690  1.0000
  Mg  Mg23      1.0  0.41207  0.53456  0.46932  1.0000
  C   C129      1.0  0.05735  0.46118  0.64982  1.0000
  C   C130      1.0  0.04222  0.47884  0.73692  1.0000
  C  Sn47      1.0  0.06717  0.50689  0.83572  1.0000
  C  Sn48      1.0  0.10802  0.51740  0.84727  1.0000
  C   C131      1.0  0.12288  0.49959  0.75957  1.0000
  C   C132      1.0  0.09764  0.47154  0.66110  1.0000
  H   H71       1.0  0.03783  0.43949  0.57357  1.0000
  O  Te47      1.0  0.05156  0.52423  0.92196  1.0000
  O  Te48      1.0  0.13363  0.54537  0.94508  1.0000
  H   H72       1.0  0.10937  0.45790  0.59361  1.0000
  Mg  Mg24      1.0  0.09205  0.56103  0.03908  1.0000
  C   C133      1.0  0.48808  0.08931  0.64335  1.0000
  C   C134      1.0  0.46129  0.09460  0.72273  1.0000
  C  Sn49      1.0  0.43929  0.06686  0.82504  1.0000
  C  Sn50      1.0  0.44428  0.03324  0.84810  1.0000
  C   C135      1.0  0.47117  0.02823  0.76820  1.0000
  C   C136      1.0  0.49302  0.05616  0.66606  1.0000
  H   H73       1.0  0.50500  0.11093  0.56437  1.0000
  O  Te49      1.0  0.41265  0.07259  0.90337  1.0000
  O  Te50      1.0  0.42268  0.00506  0.94971  1.0000
  H   H74       1.0  0.51377  0.05207  0.60468  1.0000
  Mg  Mg25      1.0  0.38373  0.02621  0.02970  1.0000
  C   C137      1.0  0.45867  0.40002  0.67136  1.0000
  C   C138      1.0  0.47866  0.43478  0.75097  1.0000
  C  Sn51      1.0  0.51010  0.44065  0.84076  1.0000
  C  Sn52      1.0  0.52169  0.41113  0.85078  1.0000
  C   C139      1.0  0.50152  0.37648  0.77062  1.0000
  C   C140      1.0  0.47009  0.37090  0.68114  1.0000
  H   H75       1.0  0.43436  0.39571  0.60207  1.0000
  O  Te51      1.0  0.52974  0.47554  0.91959  1.0000
  O  Te52      1.0  0.55302  0.41625  0.93965  1.0000
  H   H76       1.0  0.45464  0.34401  0.61945  1.0000
  Mg  Mg26      1.0  0.56433  0.46909  0.02581  1.0000
  C   C141      1.0  0.90519  0.40223  0.64298  1.0000
  C   C142      1.0  0.90214  0.36842  0.70887  1.0000
  C  Sn53      1.0  0.93254  0.37193  0.79951  1.0000
  C  Sn54      1.0  0.96658  0.41004  0.82446  1.0000
  C   C143      1.0  0.96934  0.44369  0.75811  1.0000
  C   C144      1.0  0.93876  0.43983  0.66757  1.0000
  H   H77       1.0  0.88152  0.39925  0.57299  1.0000
  O  Te53      1.0  0.92901  0.33785  0.86444  1.0000
  O  Te54      1.0  0.99739  0.41441  0.91460  1.0000
  H   H78       1.0  0.94112  0.46601  0.61664  1.0000
  Mg  Mg27      1.0  0.97885  0.35908  0.97841  1.0000
  C   C145      1.0  0.59675  0.05834  0.66534  1.0000
  C   C146      1.0  0.56332  0.04374  0.74923  1.0000
  C  Sn55      1.0  0.55936  0.06924  0.84049  1.0000
  C  Sn56      1.0  0.58947  0.11009  0.84765  1.0000
  C   C147      1.0  0.62279  0.12441  0.76322  1.0000
  C   C148      1.0  0.62646  0.09863  0.67230  1.0000
  H   H79       1.0  0.59958  0.03840  0.59493  1.0000
  O  Te55      1.0  0.52577  0.05416  0.92361  1.0000
  O  Te56      1.0  0.58626  0.13623  0.93791  1.0000
  H   H80       1.0  0.65234  0.10994  0.60729  1.0000
  Mg  Mg28      1.0  0.52865  0.10180  0.03020  1.0000
  C   C149      1.0  0.61927  0.57106  0.83690  1.0000
  C   C150      1.0  0.63484  0.55043  0.76790  1.0000
  C  Sn57      1.0  0.61049  0.51920  0.67773  1.0000
  C  Sn58      1.0  0.56981  0.50851  0.65644  1.0000
  C   C151      1.0  0.55452  0.52934  0.72589  1.0000
  C   C152      1.0  0.57915  0.56054  0.81591  1.0000
  H   H81       1.0  0.63833  0.59521  0.90650  1.0000
  O  Te57      1.0  0.62652  0.49890  0.60966  1.0000
  O  Te58      1.0  0.54480  0.47742  0.56686  1.0000
  H   H82       1.0  0.56710  0.57652  0.86926  1.0000
  Mg  Mg29      1.0  0.58051  0.45869  0.49789  1.0000
  C   C153      1.0  0.93772  0.53740  0.64299  1.0000
  C   C154      1.0  0.95448  0.52078  0.73274  1.0000
  C  Sn59      1.0  0.93148  0.49419  0.83633  1.0000
  C  Sn60      1.0  0.89095  0.48409  0.85004  1.0000
  C   C155      1.0  0.87446  0.50086  0.75967  1.0000
  C   C156      1.0  0.89774  0.52745  0.65641  1.0000
  H   H83       1.0  0.95572  0.55796  0.56304  1.0000
  O  Te59      1.0  0.94870  0.47787  0.92515  1.0000
  O  Te60      1.0  0.86729  0.45758  0.95263  1.0000
  H   H84       1.0  0.88475  0.54029  0.58687  1.0000
  Mg  Mg30      1.0  0.89803  0.44343  0.04867  1.0000
  C   C157      1.0  0.51613  0.26745  0.72891  1.0000
  C   C158      1.0  0.48304  0.27175  0.75573  1.0000
  C  Sn61      1.0  0.44657  0.23849  0.79071  1.0000
  C  Sn62      1.0  0.44325  0.20025  0.79896  1.0000
  C   C159      1.0  0.47653  0.19627  0.77203  1.0000
  C   C160      1.0  0.51288  0.22975  0.73707  1.0000
  H   H85       1.0  0.54426  0.29335  0.70193  1.0000
  O  Te61      1.0  0.41381  0.24331  0.81713  1.0000
  O  Te62      1.0  0.40715  0.16651  0.83375  1.0000
  H   H86       1.0  0.53850  0.22641  0.71640  1.0000
  Mg  Mg31      1.0  0.37099  0.18833  0.86050  1.0000
  C   C161      1.0  0.77716  0.21089  0.72993  1.0000
  C   C162      1.0  0.73767  0.20192  0.74734  1.0000
  C  Sn63      1.0  0.72855  0.23259  0.75472  1.0000
  C  Sn64      1.0  0.75961  0.27295  0.74442  1.0000
  C   C163      1.0  0.79901  0.28161  0.72693  1.0000
  C   C164      1.0  0.80781  0.25069  0.71971  1.0000
  H   H87       1.0  0.78396  0.18697  0.72427  1.0000
  O  Te63      1.0  0.68894  0.22310  0.77218  1.0000
  O  Te64      1.0  0.75133  0.30418  0.75142  1.0000
  H   H88       1.0  0.83838  0.25764  0.70615  1.0000
  Mg  Mg32      1.0  0.69267  0.27611  0.77586  1.0000
  C   C165      1.0  0.72955  0.48400  0.77311  1.0000
  C   C166      1.0  0.72057  0.51485  0.76673  1.0000
  C  Sn65      1.0  0.75086  0.55421  0.74472  1.0000
  C  Sn66      1.0  0.79084  0.56275  0.72881  1.0000
  C   C167      1.0  0.79951  0.53167  0.73527  1.0000
  C   C168      1.0  0.76898  0.49240  0.75737  1.0000
  H   H89       1.0  0.70593  0.45361  0.79014  1.0000
  O  Te65      1.0  0.74137  0.58467  0.73868  1.0000
  O  Te66      1.0  0.82168  0.60181  0.70666  1.0000
  H   H90       1.0  0.77593  0.46852  0.76222  1.0000
  Mg  Mg33      1.0  0.79377  0.63311  0.70654  1.0000
  C   C169      1.0  0.47745  0.75004  0.74198  1.0000
  C   C170      1.0  0.50740  0.78936  0.76892  1.0000
  C  Sn67      1.0  0.54682  0.79831  0.79503  1.0000
  C  Sn68      1.0  0.55633  0.76727  0.79404  1.0000
  C   C171      1.0  0.52615  0.72803  0.76689  1.0000
  C   C172      1.0  0.48681  0.71940  0.74094  1.0000
  H   H91       1.0  0.44701  0.74336  0.72183  1.0000
  O  Te67      1.0  0.57638  0.83775  0.82181  1.0000
  O  Te68      1.0  0.59548  0.77539  0.81975  1.0000
  H   H92       1.0  0.46363  0.68896  0.72000  1.0000
  Mg  Mg34      1.0  0.62533  0.83384  0.85091  1.0000
  C   C173      1.0  0.20171  0.76597  0.77155  1.0000
  C   C174      1.0  0.19774  0.72911  0.73732  1.0000
  C  Sn69      1.0  0.23165  0.72596  0.71367  1.0000
  C  Sn70      1.0  0.27021  0.76041  0.72460  1.0000
  C   C175      1.0  0.27386  0.79714  0.75900  1.0000
  C   C176      1.0  0.23973  0.79995  0.78241  1.0000
  H   H93       1.0  0.17531  0.76814  0.78974  1.0000
  O  Te69      1.0  0.22715  0.68891  0.67952  1.0000
  O  Te70      1.0  0.30460  0.75810  0.70155  1.0000
  H   H94       1.0  0.24281  0.82849  0.80900  1.0000
  Mg  Mg35      1.0  0.28301  0.70095  0.65770  1.0000
  C   C177      1.0  0.21029  0.43198  0.73165  1.0000
  C   C178      1.0  0.20104  0.46221  0.75125  1.0000
  C  Sn71      1.0  0.23156  0.50201  0.76239  1.0000
  C  Sn72      1.0  0.27208  0.51162  0.75367  1.0000
  C   C179      1.0  0.28102  0.48116  0.73395  1.0000
  C   C180      1.0  0.25024  0.44144  0.72298  1.0000
  H   H95       1.0  0.18648  0.40125  0.72308  1.0000
  O  Te71      1.0  0.22179  0.53184  0.78200  1.0000
  O  Te72      1.0  0.30318  0.55115  0.76441  1.0000
  H   H96       1.0  0.25742  0.41805  0.70772  1.0000
  Mg  Mg36      1.0  0.27472  0.58126  0.79065  1.0000
