data_image0
_chemical_formula_structural       C6H2COCONHNHO2C2H5C2H5NCHNCHC6H2COCONHNHO2C2H5C2H5NCHNCHC6H2COCONHNHO2C2H5C2H5NCHNCHC2H2C2H2C2H2C2H2C22H2COCONHNHO2C2H5C2H5NCHNCHC6H2COCONHNHO2C2H5C2H5NCHNCHC6H2COCONHNHO2C2H5C2H5NCHNCHC2H2C2H2C2H2C2H2C12H2C2H2C2H2C2H2C10SnCSn2CSnTe4Mg2SnCSn2CSnTe4Mg2SnCSn2CSnTe4Mg2SnCSn2CSnTe4Mg2SnCSn2CSnTe4Mg2SnCSn2CSnTe4Mg2
_chemical_formula_sum              "C156 H120 O24 N24 Sn24 Te24 Mg12"
_cell_length_a       44.7279
_cell_length_b       44.6546
_cell_length_c       7.99328
_cell_angle_alpha    98.9819
_cell_angle_beta     66.9142
_cell_angle_gamma    60.9184

_symmetry_space_group_name_H-M    'P1'
_space_group_IT_number       1

loop_
  _space_group_symop_operation_xyz
  'x, y, z'

loop_
  _atom_site_type_symbol
  _atom_site_label
  _atom_site_symmetry_multiplicity
  _atom_site_fract_x
  _atom_site_fract_y
  _atom_site_fract_z
  _atom_site_occupancy
  C   C1        1.0  0.48683  0.54323  0.72369  1.0000
  C   C2        1.0  0.52168  0.51958  0.72761  1.0000
  C   C3        1.0  0.52974  0.48589  0.74112  1.0000
  C   C4        1.0  0.50491  0.47514  0.75030  1.0000
  C   C5        1.0  0.47022  0.49855  0.74406  1.0000
  C   C6        1.0  0.46198  0.53248  0.73213  1.0000
  H   H1        1.0  0.55644  0.46890  0.74709  1.0000
  H   H2        1.0  0.43561  0.54924  0.72323  1.0000
  C   C7        1.0  0.44235  0.48996  0.73055  1.0000
  O   O1        1.0  0.41680  0.50981  0.69496  1.0000
  C   C8        1.0  0.55138  0.52641  0.72822  1.0000
  O   O2        1.0  0.57866  0.50469  0.74900  1.0000
  N   N1        1.0  0.44952  0.45739  0.74983  1.0000
  H   H3        1.0  0.46942  0.44445  0.79310  1.0000
  N   N2        1.0  0.54496  0.55936  0.71380  1.0000
  H   H4        1.0  0.52332  0.57488  0.68421  1.0000
  O   O3        1.0  0.51331  0.44186  0.76532  1.0000
  O   O4        1.0  0.47894  0.57649  0.71021  1.0000
  C   C9        1.0  0.55251  0.38215  0.76727  1.0000
  C   C10       1.0  0.55129  0.41593  0.74782  1.0000
  H   H5        1.0  0.58041  0.36196  0.75998  1.0000
  H   H6        1.0  0.55220  0.36726  0.64584  1.0000
  H   H7        1.0  0.52633  0.39148  0.91263  1.0000
  H   H8        1.0  0.57670  0.40772  0.60174  1.0000
  H   H9        1.0  0.55216  0.43051  0.86800  1.0000
  C   C11       1.0  0.44200  0.63537  0.69643  1.0000
  C   C12       1.0  0.44214  0.60213  0.71773  1.0000
  H   H10       1.0  0.41495  0.65552  0.69729  1.0000
  H   H11       1.0  0.46916  0.62556  0.55421  1.0000
  H   H12       1.0  0.44138  0.65061  0.82092  1.0000
  H   H13       1.0  0.44226  0.58713  0.59455  1.0000
  H   H14       1.0  0.41566  0.61112  0.86155  1.0000
  N   N3        1.0  0.57031  0.56759  0.71379  1.0000
  C   C13       1.0  0.56191  0.59937  0.70634  1.0000
  H   H15       1.0  0.53523  0.61907  0.70319  1.0000
  N   N4        1.0  0.43186  0.44201  0.71221  1.0000
  C   C14       1.0  0.44276  0.41106  0.73739  1.0000
  H   H16       1.0  0.46408  0.39975  0.78669  1.0000
  C   C15       1.0  0.99818  0.48084  0.65481  1.0000
  C   C16       1.0  0.98819  0.51582  0.64942  1.0000
  C   C17       1.0  0.01269  0.52621  0.65984  1.0000
  C   C18       1.0  0.04565  0.50350  0.67388  1.0000
  C   C19       1.0  0.05610  0.46815  0.67527  1.0000
  C   C20       1.0  0.03195  0.45771  0.66378  1.0000
  H   H17       1.0  0.00370  0.55346  0.65801  1.0000
  H   H18       1.0  0.04161  0.42998  0.65956  1.0000
  C   C21       1.0  0.09138  0.43882  0.68089  1.0000
  O   O5        1.0  0.09848  0.40794  0.66706  1.0000
  C   C22       1.0  0.95419  0.54413  0.63276  1.0000
  O   O6        1.0  0.95019  0.57266  0.61709  1.0000
  N   N5        1.0  0.11465  0.44917  0.70464  1.0000
  H   H19       1.0  0.10792  0.47463  0.70421  1.0000
  N   N6        1.0  0.92876  0.53488  0.63305  1.0000
  H   H20       1.0  0.93519  0.51020  0.64527  1.0000
  O   O7        1.0  0.06963  0.51402  0.68481  1.0000
  O   O8        1.0  0.97416  0.47026  0.64954  1.0000
  C   C23       1.0  0.09461  0.55085  0.65422  1.0000
  C   C24       1.0  0.06263  0.54722  0.65422  1.0000
  H   H21       1.0  0.09211  0.57428  0.61677  1.0000
  H   H22       1.0  0.12537  0.52462  0.54216  1.0000
  H   H23       1.0  0.09072  0.55681  0.80277  1.0000
  H   H24       1.0  0.06488  0.54356  0.50934  1.0000
  H   H25       1.0  0.03156  0.57240  0.77350  1.0000
  C   C25       1.0  0.95231  0.43110  0.65919  1.0000
  C   C26       1.0  0.98618  0.43325  0.64164  1.0000
  H   H26       1.0  0.95860  0.40435  0.66478  1.0000
  H   H27       1.0  0.94943  0.43224  0.52976  1.0000
  H   H28       1.0  0.92302  0.45480  0.79695  1.0000
  H   H29       1.0  0.01551  0.41141  0.49903  1.0000
  H   H30       1.0  0.98977  0.43073  0.76811  1.0000
  N   N7        1.0  0.89661  0.55698  0.61989  1.0000
  C   C27       1.0  0.87572  0.54437  0.62236  1.0000
  H   H31       1.0  0.88422  0.51751  0.63384  1.0000
  N   N8        1.0  0.14891  0.42371  0.69540  1.0000
  C   C28       1.0  0.17039  0.43473  0.70630  1.0000
  H   H32       1.0  0.16101  0.46343  0.72458  1.0000
  C   C29       1.0  0.53953  0.96172  0.66518  1.0000
  C   C30       1.0  0.51296  0.95147  0.70300  1.0000
  C   C31       1.0  0.47673  0.97554  0.71296  1.0000
  C   C32       1.0  0.46582  0.00914  0.69273  1.0000
  C   C33       1.0  0.49219  0.01951  0.65721  1.0000
  C   C34       1.0  0.52856  0.99527  0.64553  1.0000
  H   H33       1.0  0.45796  0.96588  0.73544  1.0000
  H   H34       1.0  0.54766  0.00456  0.62053  1.0000
  C   C35       1.0  0.48725  0.05329  0.62296  1.0000
  O   O9        1.0  0.51493  0.05658  0.57373  1.0000
  C   C36       1.0  0.51851  0.91705  0.73413  1.0000
  O   O10       1.0  0.49388  0.91045  0.75634  1.0000
  N   N9        1.0  0.45043  0.08007  0.64891  1.0000
  H   H35       1.0  0.43083  0.07332  0.66569  1.0000
  N   N10       1.0  0.55299  0.89448  0.73650  1.0000
  H   H36       1.0  0.57092  0.90321  0.72158  1.0000
  O   O11       1.0  0.42948  0.03358  0.71007  1.0000
  O   O12       1.0  0.57660  0.93727  0.64320  1.0000
  C   C37       1.0  0.36911  0.05231  0.71841  1.0000
  C   C38       1.0  0.40542  0.02051  0.70980  1.0000
  H   H37       1.0  0.35095  0.04330  0.70472  1.0000
  H   H38       1.0  0.37938  0.05982  0.59430  1.0000
  H   H39       1.0  0.34930  0.07794  0.86052  1.0000
  H   H40       1.0  0.42430  0.99406  0.57281  1.0000
  H   H41       1.0  0.39569  0.01462  0.84179  1.0000
  C   C39       1.0  0.63899  0.91835  0.61246  1.0000
  C   C40       1.0  0.60116  0.95017  0.63164  1.0000
  H   H42       1.0  0.65822  0.92704  0.61067  1.0000
  H   H43       1.0  0.65708  0.89270  0.47280  1.0000
  H   H44       1.0  0.63069  0.91120  0.74032  1.0000
  H   H45       1.0  0.60915  0.95655  0.50032  1.0000
  H   H46       1.0  0.58309  0.97657  0.76753  1.0000
  N   N11       1.0  0.56455  0.86070  0.74501  1.0000
  C   C41       1.0  0.59658  0.84375  0.75541  1.0000
  H   H47       1.0  0.61138  0.85719  0.76392  1.0000
  N   N12       1.0  0.44381  0.11203  0.63077  1.0000
  C   C42       1.0  0.41194  0.13453  0.62760  1.0000
  H   H48       1.0  0.39079  0.12814  0.63402  1.0000
  C   C43       1.0  0.81563  0.55238  0.64124  1.0000
  C   C44       1.0  0.77796  0.57420  0.66341  1.0000
  H   H49       1.0  0.82641  0.52531  0.65032  1.0000
  H   H50       1.0  0.75921  0.56442  0.68896  1.0000
  C   C45       1.0  0.64692  0.79180  0.78698  1.0000
  C   C46       1.0  0.66383  0.75725  0.79955  1.0000
  H   H51       1.0  0.65874  0.80774  0.80115  1.0000
  H   H52       1.0  0.68923  0.74587  0.81963  1.0000
  C   C47       1.0  0.60016  0.78542  0.73414  1.0000
  C   C48       1.0  0.61710  0.75103  0.74621  1.0000
  H   H53       1.0  0.57554  0.79668  0.70816  1.0000
  H   H54       1.0  0.60603  0.73458  0.72685  1.0000
  C   C49       1.0  0.82483  0.60093  0.60945  1.0000
  C   C50       1.0  0.78704  0.62284  0.63534  1.0000
  H   H55       1.0  0.84363  0.61061  0.58517  1.0000
  H   H56       1.0  0.77552  0.65025  0.63041  1.0000
  C   C51       1.0  0.66729  0.69906  0.78323  1.0000
  C   C52       1.0  0.61441  0.80692  0.75807  1.0000
  C   C53       1.0  0.64864  0.73646  0.78430  1.0000
  C   C54       1.0  0.66654  0.64094  0.64216  1.0000
  C   C55       1.0  0.72139  0.63736  0.71647  1.0000
  C   C56       1.0  0.83901  0.56587  0.62090  1.0000
  C   C57       1.0  0.76217  0.61068  0.67082  1.0000
  C   C58       1.0  0.69505  0.67845  0.84928  1.0000
  C   C59       1.0  0.66379  0.67306  0.69507  1.0000
  C   C60       1.0  0.69996  0.63129  0.65069  1.0000
  C   C61       1.0  0.37489  0.27690  0.63015  1.0000
  C   C62       1.0  0.38204  0.32702  0.64526  1.0000
  C   C63       1.0  0.33051  0.33074  0.53631  1.0000
  C   C64       1.0  0.35430  0.29878  0.55465  1.0000
  C   C65       1.0  0.38475  0.29885  0.72634  1.0000
  C   C66       1.0  0.35888  0.33086  0.56475  1.0000
  C   C67       1.0  0.48088  0.53843  0.22803  1.0000
  C   C68       1.0  0.51597  0.51545  0.23196  1.0000
  C   C69       1.0  0.52491  0.48135  0.24416  1.0000
  C   C70       1.0  0.50070  0.46975  0.25243  1.0000
  C   C71       1.0  0.46576  0.49274  0.24763  1.0000
  C   C72       1.0  0.45675  0.52680  0.23641  1.0000
  H   H57       1.0  0.55146  0.46504  0.25242  1.0000
  H   H58       1.0  0.43008  0.54316  0.22938  1.0000
  C   C73       1.0  0.43771  0.48425  0.23637  1.0000
  O   O13       1.0  0.41278  0.50400  0.19740  1.0000
  C   C74       1.0  0.54410  0.52420  0.23929  1.0000
  O   O14       1.0  0.56976  0.50477  0.27496  1.0000
  N   N13       1.0  0.44285  0.45236  0.26091  1.0000
  H   H59       1.0  0.46084  0.43924  0.31335  1.0000
  N   N14       1.0  0.53793  0.55604  0.21059  1.0000
  H   H60       1.0  0.51737  0.56939  0.17142  1.0000
  O   O15       1.0  0.50936  0.43632  0.26548  1.0000
  O   O16       1.0  0.47139  0.57224  0.21645  1.0000
  C   C75       1.0  0.54849  0.37715  0.27332  1.0000
  C   C76       1.0  0.54682  0.41112  0.25392  1.0000
  H   H61       1.0  0.57623  0.35737  0.26844  1.0000
  H   H62       1.0  0.54889  0.36177  0.15028  1.0000
  H   H63       1.0  0.52208  0.38615  0.41671  1.0000
  H   H64       1.0  0.57267  0.40280  0.10920  1.0000
  H   H65       1.0  0.54683  0.42629  0.37608  1.0000
  C   C77       1.0  0.43050  0.63182  0.21740  1.0000
  C   C78       1.0  0.43332  0.59718  0.23231  1.0000
  H   H66       1.0  0.40260  0.65129  0.22271  1.0000
  H   H67       1.0  0.45662  0.62328  0.07418  1.0000
  H   H68       1.0  0.42978  0.64721  0.34182  1.0000
  H   H69       1.0  0.43330  0.58211  0.10975  1.0000
  H   H70       1.0  0.40806  0.60460  0.37651  1.0000
  N   N15       1.0  0.55848  0.56914  0.23240  1.0000
  C   C79       1.0  0.55068  0.59874  0.19728  1.0000
  H   H71       1.0  0.52894  0.61182  0.15207  1.0000
  N   N16       1.0  0.42183  0.44087  0.22801  1.0000
  C   C80       1.0  0.42788  0.41065  0.25097  1.0000
  H   H72       1.0  0.44887  0.39501  0.29617  1.0000
  C   C81       1.0  0.96532  0.48834  0.14451  1.0000
  C   C82       1.0  0.95585  0.52330  0.13993  1.0000
  C   C83       1.0  0.98064  0.53298  0.14923  1.0000
  C   C84       1.0  0.01404  0.50973  0.16004  1.0000
  C   C85       1.0  0.02361  0.47477  0.16430  1.0000
  C   C86       1.0  0.99858  0.46499  0.15513  1.0000
  H   H73       1.0  0.97169  0.56037  0.14996  1.0000
  H   H74       1.0  0.00715  0.43782  0.15724  1.0000
  C   C87       1.0  0.05739  0.44609  0.18054  1.0000
  O   O17       1.0  0.06123  0.41752  0.19486  1.0000
  C   C88       1.0  0.92138  0.55303  0.13079  1.0000
  O   O18       1.0  0.91735  0.58215  0.12593  1.0000
  N   N17       1.0  0.08285  0.45518  0.18115  1.0000
  H   H75       1.0  0.07570  0.48049  0.17596  1.0000
  N   N18       1.0  0.89526  0.54519  0.12743  1.0000
  H   H76       1.0  0.89860  0.52205  0.14989  1.0000
  O   O19       1.0  0.03786  0.52042  0.16825  1.0000
  O   O20       1.0  0.94017  0.47887  0.14076  1.0000
  C   C89       1.0  0.05541  0.56273  0.19575  1.0000
  C   C90       1.0  0.02399  0.55860  0.19145  1.0000
  H   H77       1.0  0.04831  0.59006  0.19690  1.0000
  H   H78       1.0  0.08605  0.53990  0.06336  1.0000
  H   H79       1.0  0.05585  0.56184  0.33119  1.0000
  H   H80       1.0  0.02175  0.56204  0.06279  1.0000
  H   H81       1.0  0.99372  0.57892  0.33144  1.0000
  C   C91       1.0  0.90994  0.44693  0.20896  1.0000
  C   C92       1.0  0.94461  0.44775  0.18930  1.0000
  H   H82       1.0  0.91168  0.42397  0.24930  1.0000
  H   H83       1.0  0.91129  0.44195  0.06649  1.0000
  H   H84       1.0  0.88038  0.47390  0.32621  1.0000
  H   H85       1.0  0.97442  0.42101  0.07043  1.0000
  H   H86       1.0  0.94387  0.45230  0.33068  1.0000
  N   N19       1.0  0.86314  0.57017  0.11951  1.0000
  C   C93       1.0  0.83684  0.56338  0.14808  1.0000
  H   H87       1.0  0.84013  0.53936  0.18145  1.0000
  N   N20       1.0  0.11509  0.43298  0.19330  1.0000
  C   C94       1.0  0.13508  0.44637  0.19625  1.0000
  H   H88       1.0  0.12556  0.47382  0.19076  1.0000
  C   C95       1.0  0.52655  0.98618  0.15494  1.0000
  C   C96       1.0  0.49882  0.97741  0.19060  1.0000
  C   C97       1.0  0.46302  0.00274  0.20026  1.0000
  C   C98       1.0  0.45355  0.03617  0.18179  1.0000
  C   C99       1.0  0.48104  0.04516  0.14862  1.0000
  C   C100      1.0  0.51702  0.01967  0.13686  1.0000
  H   H89       1.0  0.44304  0.99448  0.22390  1.0000
  H   H90       1.0  0.53677  0.02817  0.11521  1.0000
  C   C101      1.0  0.47713  0.07935  0.12243  1.0000
  O   O21       1.0  0.50383  0.08339  0.09140  1.0000
  C   C102      1.0  0.50185  0.94440  0.22829  1.0000
  O   O22       1.0  0.47437  0.94104  0.26720  1.0000
  N   N21       1.0  0.44155  0.10512  0.13636  1.0000
  H   H91       1.0  0.42175  0.09855  0.15595  1.0000
  N   N22       1.0  0.53659  0.91923  0.22242  1.0000
  H   H92       1.0  0.55619  0.92602  0.20534  1.0000
  O   O23       1.0  0.41719  0.06176  0.20046  1.0000
  O   O24       1.0  0.56287  0.96051  0.13507  1.0000
  C   C103      1.0  0.35480  0.08305  0.22371  1.0000
  C   C104      1.0  0.39157  0.05040  0.20821  1.0000
  H   H93       1.0  0.33472  0.07547  0.22601  1.0000
  H   H94       1.0  0.36426  0.08944  0.09380  1.0000
  H   H95       1.0  0.33723  0.10877  0.36210  1.0000
  H   H96       1.0  0.40925  0.02418  0.07210  1.0000
  H   H97       1.0  0.38246  0.04421  0.33938  1.0000
  C   C105      1.0  0.62395  0.93931  0.12439  1.0000
  C   C106      1.0  0.58813  0.97214  0.13457  1.0000
  H   H98       1.0  0.64299  0.94716  0.13726  1.0000
  H   H99       1.0  0.64312  0.91394  0.98157  1.0000
  H   H100      1.0  0.61323  0.93181  0.24791  1.0000
  H   H101      1.0  0.59839  0.97779  0.00223  1.0000
  H   H102      1.0  0.56995  0.99849  0.27113  1.0000
  N   N23       1.0  0.54317  0.88790  0.24928  1.0000
  C   C107      1.0  0.57438  0.86828  0.26280  1.0000
  H   H103      1.0  0.59357  0.87724  0.25789  1.0000
  N   N24       1.0  0.43312  0.13783  0.12280  1.0000
  C   C108      1.0  0.39933  0.15878  0.13181  1.0000
  H   H104      1.0  0.37985  0.14976  0.14670  1.0000
  C   C109      1.0  0.55418  0.65280  0.22521  1.0000
  C   C110      1.0  0.57008  0.67141  0.26051  1.0000
  H   H105      1.0  0.52902  0.66669  0.20404  1.0000
  H   H106      1.0  0.55807  0.69952  0.26434  1.0000
  C   C111      1.0  0.77373  0.57887  0.17213  1.0000
  C   C112      1.0  0.73992  0.60098  0.16311  1.0000
  H   H107      1.0  0.77908  0.55455  0.20434  1.0000
  H   H108      1.0  0.71875  0.59408  0.18853  1.0000
  C   C113      1.0  0.79334  0.61957  0.10368  1.0000
  C   C114      1.0  0.75922  0.64190  0.09702  1.0000
  H   H109      1.0  0.81455  0.62636  0.07988  1.0000
  H   H110      1.0  0.75294  0.66704  0.07241  1.0000
  C   C115      1.0  0.60343  0.59813  0.23981  1.0000
  C   C116      1.0  0.61973  0.61639  0.27169  1.0000
  H   H111      1.0  0.61587  0.56979  0.23281  1.0000
  H   H112      1.0  0.64551  0.60237  0.28834  1.0000
  C   C117      1.0  0.63703  0.71899  0.20807  1.0000
  C   C118      1.0  0.62105  0.67182  0.31136  1.0000
  C   C119      1.0  0.56983  0.61630  0.21972  1.0000
  C   C120      1.0  0.60286  0.65353  0.28583  1.0000
  C   C121      1.0  0.69382  0.65847  0.13829  1.0000
  C   C122      1.0  0.80133  0.58754  0.14150  1.0000
  C   C123      1.0  0.73190  0.63296  0.12411  1.0000
  C   C124      1.0  0.68104  0.68846  0.06433  1.0000
  C   C125      1.0  0.62075  0.70192  0.29080  1.0000
  C   C126      1.0  0.65945  0.66120  0.24747  1.0000
  C   C127      1.0  0.42132  0.35864  0.18565  1.0000
  C   C128      1.0  0.40382  0.34326  0.13442  1.0000
  H   H113      1.0  0.44633  0.34162  0.20378  1.0000
  H   H114      1.0  0.41487  0.31433  0.11234  1.0000
  C   C129      1.0  0.19142  0.44206  0.20475  1.0000
  C   C130      1.0  0.22663  0.42299  0.20716  1.0000
  H   H115      1.0  0.17962  0.46950  0.19957  1.0000
  H   H116      1.0  0.24287  0.43502  0.20388  1.0000
  C   C131      1.0  0.18647  0.39032  0.20981  1.0000
  C   C132      1.0  0.22157  0.37133  0.21152  1.0000
  H   H117      1.0  0.17004  0.37849  0.21466  1.0000
  H   H118      1.0  0.23379  0.34381  0.21577  1.0000
  C   C133      1.0  0.37345  0.41832  0.19893  1.0000
  C   C134      1.0  0.35537  0.40332  0.15294  1.0000
  H   H119      1.0  0.36240  0.44728  0.22206  1.0000
  H   H120      1.0  0.32974  0.42034  0.13911  1.0000
  C   C135      1.0  0.34618  0.29796  0.05495  1.0000
  C   C136      1.0  0.35170  0.34927  0.07051  1.0000
  C   C137      1.0  0.40730  0.39600  0.21228  1.0000
  C   C138      1.0  0.37101  0.36515  0.11349  1.0000
  C   C139      1.0  0.28043  0.36543  0.19543  1.0000
  C   C140      1.0  0.17107  0.42594  0.20379  1.0000
  C   C141      1.0  0.24238  0.38712  0.20764  1.0000
  C   C142      1.0  0.30674  0.32749  0.14099  1.0000
  C   C143      1.0  0.37092  0.30928  0.93939  1.0000
  C   C144      1.0  0.31118  0.36893  0.15259  1.0000
  C  Sn1       1.0  0.24753  0.41366  0.59507  1.0000
  C   C145      1.0  0.21858  0.40737  0.62251  1.0000
  C  Sn2       1.0  0.22376  0.37535  0.64863  1.0000
  C  Sn3       1.0  0.25859  0.34907  0.64743  1.0000
  C   C146      1.0  0.28751  0.35536  0.62004  1.0000
  C  Sn4       1.0  0.28236  0.38737  0.59387  1.0000
  O  Te1       1.0  0.24173  0.44586  0.56925  1.0000
  O  Te2       1.0  0.19441  0.36967  0.67573  1.0000
  O  Te3       1.0  0.26437  0.31684  0.67328  1.0000
  O  Te4       1.0  0.31168  0.39306  0.56682  1.0000
  Mg  Mg1       1.0  0.21590  0.32155  0.70491  1.0000
  Mg  Mg2       1.0  0.29021  0.44118  0.53773  1.0000
  C  Sn5       1.0  0.42990  0.20217  0.56260  1.0000
  C   C147      1.0  0.39682  0.23068  0.56474  1.0000
  C  Sn6       1.0  0.36346  0.23040  0.61069  1.0000
  C  Sn7       1.0  0.36316  0.20101  0.65556  1.0000
  C   C148      1.0  0.39622  0.17252  0.65343  1.0000
  C  Sn8       1.0  0.42960  0.17278  0.60747  1.0000
  O  Te5       1.0  0.46293  0.20303  0.51626  1.0000
  O  Te6       1.0  0.33075  0.25920  0.61182  1.0000
  O  Te7       1.0  0.33010  0.20017  0.70191  1.0000
  O  Te8       1.0  0.46230  0.14400  0.60636  1.0000
  Mg  Mg3       1.0  0.29276  0.24570  0.68416  1.0000
  Mg  Mg4       1.0  0.50029  0.15749  0.53414  1.0000
  C  Sn9       1.0  0.35130  0.21653  0.05782  1.0000
  C   C149      1.0  0.38481  0.19388  0.07020  1.0000
  C  Sn10      1.0  0.40466  0.20791  0.10661  1.0000
  C  Sn11      1.0  0.39071  0.24536  0.13129  1.0000
  C   C150      1.0  0.35722  0.26799  0.11894  1.0000
  C  Sn12      1.0  0.33736  0.25399  0.08250  1.0000
  O  Te9       1.0  0.33193  0.20193  0.02132  1.0000
  O  Te10      1.0  0.43810  0.18472  0.11829  1.0000
  O  Te11      1.0  0.41012  0.25996  0.16781  1.0000
  O  Te12      1.0  0.30393  0.27715  0.07085  1.0000
  Mg  Mg5       1.0  0.45436  0.21745  0.17075  1.0000
  Mg  Mg6       1.0  0.28764  0.24447  0.01851  1.0000
  C  Sn13      1.0  0.45302  0.34242  0.63548  1.0000
  C   C151      1.0  0.43767  0.37899  0.64812  1.0000
  C  Sn14      1.0  0.39887  0.40273  0.68316  1.0000
  C  Sn15      1.0  0.37490  0.38966  0.70617  1.0000
  C   C152      1.0  0.39025  0.35311  0.69355  1.0000
  C  Sn16      1.0  0.42905  0.32934  0.65848  1.0000
  O  Te13      1.0  0.49188  0.31917  0.60036  1.0000
  O  Te14      1.0  0.38419  0.43918  0.69513  1.0000
  O  Te15      1.0  0.33601  0.41294  0.74130  1.0000
  O  Te16      1.0  0.44373  0.29292  0.64655  1.0000
  Mg  Mg7       1.0  0.32941  0.46026  0.74528  1.0000
  Mg  Mg8       1.0  0.49849  0.27183  0.59651  1.0000
  C  Sn17      1.0  0.63145  0.78511  0.31364  1.0000
  C   C153      1.0  0.61461  0.76595  0.30477  1.0000
  C  Sn18      1.0  0.58390  0.77947  0.26484  1.0000
  C  Sn19      1.0  0.56973  0.81282  0.23299  1.0000
  C   C154      1.0  0.58656  0.83195  0.24184  1.0000
  C  Sn20      1.0  0.61727  0.81846  0.28179  1.0000
  O  Te17      1.0  0.66212  0.77109  0.35376  1.0000
  O  Te18      1.0  0.56753  0.75983  0.25679  1.0000
  O  Te19      1.0  0.53902  0.82683  0.19286  1.0000
  O  Te20      1.0  0.63364  0.83808  0.28981  1.0000
  Mg  Mg9       1.0  0.52634  0.79012  0.19713  1.0000
  Mg  Mg10      1.0  0.67485  0.80780  0.34936  1.0000
  C  Sn21      1.0  0.65470  0.58492  0.57106  1.0000
  C   C155      1.0  0.64646  0.62040  0.59887  1.0000
  C  Sn22      1.0  0.60638  0.65304  0.69799  1.0000
  C  Sn23      1.0  0.57386  0.65017  0.77095  1.0000
  C   C156      1.0  0.58211  0.61472  0.74316  1.0000
  C  Sn24      1.0  0.62218  0.58205  0.64402  1.0000
  O  Te21      1.0  0.69500  0.55266  0.47154  1.0000
  O  Te22      1.0  0.59890  0.68819  0.72393  1.0000
  O  Te23      1.0  0.53354  0.68247  0.87052  1.0000
  O  Te24      1.0  0.62966  0.54692  0.61810  1.0000
  Mg  Mg11      1.0  0.53884  0.72395  0.86920  1.0000
  Mg  Mg12      1.0  0.68971  0.51115  0.47295  1.0000
