data_image0
_chemical_formula_structural       C62H36N8C8H4C4NCH3C4NCH3C4NCH3C4NCH3C4NCH3C4NCH3C4NCH3C4NCH3C50H28N8C8H4C4NCH3C4NCH3C4NCH3C4NCH3C4NCH3C4NCH3C4NCH3C4NCH3SnCSn2CSnTe4Mg2SnCSn2CSnTe4Mg2SnCSn2CSnTe4Mg2SnCSn2CSnTe4Mg2SnCSn2CSnTe4Mg2SnCSn2CSnTe4Mg2SnCSn2CSnTe4Mg2SnCSn2CSnTe4Mg2
_chemical_formula_sum              "C224 H120 N32 Sn32 Te32 Mg16"
_cell_length_a       40.3173
_cell_length_b       40.0043
_cell_length_c       8.12725
_cell_angle_alpha    89.192
_cell_angle_beta     65.0178
_cell_angle_gamma    89.7956

_symmetry_space_group_name_H-M    'P1'
_space_group_IT_number       1

loop_
  _space_group_symop_operation_xyz
  'x, y, z'

loop_
  _atom_site_type_symbol
  _atom_site_label
  _atom_site_symmetry_multiplicity
  _atom_site_fract_x
  _atom_site_fract_y
  _atom_site_fract_z
  _atom_site_occupancy
  C   C1        1.0  0.97482  0.46616  0.25442  1.0000
  C   C2        1.0  0.47399  0.96669  0.25053  1.0000
  C   C3        1.0  0.03664  0.53744  0.25112  1.0000
  C   C4        1.0  0.53726  0.03714  0.24461  1.0000
  C   C5        1.0  0.97368  0.53731  0.26698  1.0000
  C   C6        1.0  0.47429  0.03785  0.26146  1.0000
  C   C7        1.0  0.03750  0.46565  0.24215  1.0000
  C   C8        1.0  0.53699  0.96533  0.23443  1.0000
  C   C9        1.0  0.94618  0.51910  0.23880  1.0000
  C   C10       1.0  0.44638  0.02015  0.23385  1.0000
  C   C11       1.0  0.07020  0.48470  0.19628  1.0000
  C   C12       1.0  0.57001  0.98398  0.18664  1.0000
  C   C13       1.0  0.94684  0.48497  0.23174  1.0000
  C   C14       1.0  0.44624  0.98601  0.22860  1.0000
  C   C15       1.0  0.06975  0.51885  0.20094  1.0000
  C   C16       1.0  0.57011  0.01813  0.19203  1.0000
  C   C17       1.0  0.97211  0.57254  0.28976  1.0000
  C   C18       1.0  0.47329  0.07301  0.28501  1.0000
  C   C19       1.0  0.03573  0.43013  0.26325  1.0000
  C   C20       1.0  0.53488  0.92980  0.25463  1.0000
  C   C21       1.0  0.97402  0.43074  0.26864  1.0000
  C   C22       1.0  0.47273  0.93122  0.26455  1.0000
  C   C23       1.0  0.03451  0.57273  0.27538  1.0000
  C   C24       1.0  0.53570  0.07242  0.27068  1.0000
  C   C25       1.0  0.94039  0.59275  0.30281  1.0000
  C   C26       1.0  0.06565  0.40926  0.26694  1.0000
  C   C27       1.0  0.56480  0.90872  0.25692  1.0000
  C   C28       1.0  0.44129  0.91112  0.27468  1.0000
  C   C29       1.0  0.06495  0.59321  0.27361  1.0000
  C   C30       1.0  0.90407  0.58373  0.41638  1.0000
  C   C31       1.0  0.09194  0.42081  0.32474  1.0000
  C   C32       1.0  0.59099  0.92008  0.31586  1.0000
  C   C33       1.0  0.40474  0.91942  0.38650  1.0000
  C   C34       1.0  0.09040  0.58139  0.33720  1.0000
  C   C35       1.0  0.87496  0.60362  0.42492  1.0000
  C   C36       1.0  0.12072  0.40061  0.31727  1.0000
  C   C37       1.0  0.61974  0.89982  0.30829  1.0000
  C   C38       1.0  0.37616  0.89879  0.39632  1.0000
  C   C39       1.0  0.11926  0.60133  0.32918  1.0000
  C   C40       1.0  0.88116  0.63310  0.31990  1.0000
  C   C41       1.0  0.12401  0.36763  0.25501  1.0000
  C   C42       1.0  0.62309  0.86687  0.24536  1.0000
  C   C43       1.0  0.38311  0.86941  0.29448  1.0000
  C   C44       1.0  0.12349  0.63420  0.25997  1.0000
  C   C45       1.0  0.91752  0.64259  0.20882  1.0000
  C   C46       1.0  0.09708  0.35533  0.20437  1.0000
  C   C47       1.0  0.59638  0.85482  0.19233  1.0000
  C   C48       1.0  0.41963  0.86098  0.18255  1.0000
  C   C49       1.0  0.09787  0.64651  0.19868  1.0000
  C   C50       1.0  0.94644  0.62286  0.20181  1.0000
  C   C51       1.0  0.06886  0.37570  0.20886  1.0000
  C   C52       1.0  0.56823  0.87530  0.19654  1.0000
  C   C53       1.0  0.44803  0.88140  0.17421  1.0000
  C   C54       1.0  0.06945  0.62640  0.20457  1.0000
  C   C55       1.0  0.85050  0.65347  0.32719  1.0000
  C   C56       1.0  0.35222  0.15380  0.31801  1.0000
  C   C57       1.0  0.15347  0.34627  0.25341  1.0000
  C   C58       1.0  0.65237  0.84542  0.24584  1.0000
  C   C59       1.0  0.85424  0.34757  0.31323  1.0000
  C   C60       1.0  0.35288  0.84805  0.30732  1.0000
  C   C61       1.0  0.15254  0.65519  0.26437  1.0000
  C   C62       1.0  0.65509  0.15398  0.25703  1.0000
  H   H1        1.0  0.92489  0.53294  0.21893  1.0000
  H   H2        1.0  0.42547  0.03439  0.21275  1.0000
  H   H3        1.0  0.09619  0.47175  0.15227  1.0000
  H   H4        1.0  0.59580  0.97068  0.14059  1.0000
  H   H5        1.0  0.92625  0.47163  0.20500  1.0000
  H   H6        1.0  0.42522  0.97314  0.20311  1.0000
  H   H7        1.0  0.09537  0.53231  0.16098  1.0000
  H   H8        1.0  0.59591  0.03130  0.15087  1.0000
  H   H9        1.0  0.89884  0.56146  0.50202  1.0000
  H   H10       1.0  0.08903  0.44555  0.38213  1.0000
  H   H11       1.0  0.58796  0.94470  0.37474  1.0000
  H   H12       1.0  0.39889  0.94155  0.47026  1.0000
  H   H13       1.0  0.08657  0.55678  0.40048  1.0000
  H   H14       1.0  0.84707  0.59653  0.51608  1.0000
  H   H15       1.0  0.14031  0.41005  0.36520  1.0000
  H   H16       1.0  0.63918  0.90923  0.35739  1.0000
  H   H17       1.0  0.34804  0.90512  0.48615  1.0000
  H   H18       1.0  0.13799  0.59184  0.38358  1.0000
  H   H19       1.0  0.92217  0.66556  0.12875  1.0000
  H   H20       1.0  0.09920  0.32963  0.15922  1.0000
  H   H21       1.0  0.59877  0.82927  0.14456  1.0000
  H   H22       1.0  0.42479  0.83830  0.10335  1.0000
  H   H23       1.0  0.10119  0.67186  0.14375  1.0000
  H   H24       1.0  0.97445  0.63021  0.11465  1.0000
  H   H25       1.0  0.04947  0.36588  0.16084  1.0000
  H   H26       1.0  0.54916  0.86573  0.14576  1.0000
  H   H27       1.0  0.47620  0.87492  0.08677  1.0000
  H   H28       1.0  0.05101  0.63587  0.14848  1.0000
  H   H29       1.0  0.82284  0.64370  0.41023  1.0000
  H   H30       1.0  0.32462  0.14441  0.40510  1.0000
  H   H31       1.0  0.16812  0.35494  0.33230  1.0000
  H   H32       1.0  0.66683  0.85418  0.32555  1.0000
  H   H33       1.0  0.82666  0.35606  0.40504  1.0000
  H   H34       1.0  0.32512  0.85697  0.39366  1.0000
  H   H35       1.0  0.16622  0.64562  0.34709  1.0000
  H   H36       1.0  0.67000  0.14341  0.33169  1.0000
  N   N1        1.0  0.85567  0.68195  0.24307  1.0000
  N   N2        1.0  0.35745  0.18221  0.23323  1.0000
  N   N3        1.0  0.16094  0.31804  0.16953  1.0000
  N   N4        1.0  0.65977  0.81704  0.16318  1.0000
  N   N5        1.0  0.85943  0.31980  0.22705  1.0000
  N   N6        1.0  0.35837  0.81966  0.22644  1.0000
  N   N7        1.0  0.16061  0.68403  0.18263  1.0000
  N   N8        1.0  0.66221  0.18341  0.18139  1.0000
  C   C63       1.0  0.00204  0.58887  0.29653  1.0000
  C   C64       1.0  0.50332  0.08891  0.29317  1.0000
  C   C65       1.0  0.00366  0.41415  0.27808  1.0000
  C   C66       1.0  0.50252  0.91424  0.27078  1.0000
  C   C67       1.0  0.00579  0.48373  0.25321  1.0000
  C   C68       1.0  0.50542  0.98381  0.24750  1.0000
  C   C69       1.0  0.00526  0.51953  0.25887  1.0000
  C   C70       1.0  0.50555  0.01961  0.25316  1.0000
  H   H37       1.0  0.99973  0.61558  0.32139  1.0000
  H   H38       1.0  0.50111  0.11554  0.32025  1.0000
  H   H39       1.0  0.00110  0.38731  0.30149  1.0000
  H   H40       1.0  0.49988  0.88737  0.29256  1.0000
  C   C71       1.0  0.18923  0.29860  0.17543  1.0000
  C   C72       1.0  0.18655  0.26363  0.17257  1.0000
  C   C73       1.0  0.21372  0.24406  0.18652  1.0000
  C   C74       1.0  0.24362  0.25958  0.20064  1.0000
  N   N9        1.0  0.24772  0.29323  0.19112  1.0000
  C   C75       1.0  0.22145  0.31181  0.17778  1.0000
  H   H41       1.0  0.16287  0.25279  0.16151  1.0000
  H   H42       1.0  0.21266  0.21693  0.18690  1.0000
  H   H43       1.0  0.22626  0.33873  0.16322  1.0000
  C   C76       1.0  0.68802  0.79744  0.16857  1.0000
  C   C77       1.0  0.68610  0.76249  0.15737  1.0000
  C   C78       1.0  0.71351  0.74267  0.16767  1.0000
  C   C79       1.0  0.74290  0.75797  0.18766  1.0000
  N   N10       1.0  0.74618  0.79166  0.18718  1.0000
  C   C80       1.0  0.71981  0.81045  0.17660  1.0000
  H   H44       1.0  0.66284  0.75166  0.14224  1.0000
  H   H45       1.0  0.71304  0.71559  0.16068  1.0000
  H   H46       1.0  0.72419  0.83743  0.16909  1.0000
  C   C81       1.0  0.82662  0.70051  0.24080  1.0000
  C   C82       1.0  0.82790  0.73560  0.24778  1.0000
  C   C83       1.0  0.80026  0.75451  0.23453  1.0000
  C   C84       1.0  0.77198  0.73827  0.20844  1.0000
  N   N11       1.0  0.77041  0.70455  0.20075  1.0000
  C   C85       1.0  0.79672  0.68655  0.21837  1.0000
  H   H47       1.0  0.85040  0.74710  0.26689  1.0000
  H   H48       1.0  0.79975  0.78165  0.24218  1.0000
  H   H49       1.0  0.79511  0.65947  0.20781  1.0000
  C   C86       1.0  0.32813  0.20127  0.23832  1.0000
  C   C87       1.0  0.33039  0.23632  0.24202  1.0000
  C   C88       1.0  0.30233  0.25560  0.23577  1.0000
  C   C89       1.0  0.27270  0.23976  0.22016  1.0000
  N   N12       1.0  0.27004  0.20606  0.21763  1.0000
  C   C90       1.0  0.29681  0.18773  0.22797  1.0000
  H   H50       1.0  0.35404  0.24757  0.25145  1.0000
  H   H51       1.0  0.30268  0.28274  0.23998  1.0000
  H   H52       1.0  0.29434  0.16067  0.22151  1.0000
  C   C91       1.0  0.18850  0.70326  0.19284  1.0000
  C   C92       1.0  0.18749  0.73813  0.17095  1.0000
  C   C93       1.0  0.21488  0.75789  0.17992  1.0000
  C   C94       1.0  0.24329  0.74255  0.21001  1.0000
  N   N13       1.0  0.24543  0.70890  0.22380  1.0000
  C   C95       1.0  0.21902  0.69019  0.21450  1.0000
  H   H53       1.0  0.16503  0.74885  0.14711  1.0000
  H   H54       1.0  0.21533  0.78490  0.16242  1.0000
  H   H55       1.0  0.22243  0.66318  0.21990  1.0000
  C   C96       1.0  0.69044  0.20275  0.18802  1.0000
  C   C97       1.0  0.68957  0.23754  0.16243  1.0000
  C   C98       1.0  0.71698  0.25755  0.16972  1.0000
  C   C99       1.0  0.74525  0.24261  0.20246  1.0000
  N   N14       1.0  0.74751  0.20898  0.21762  1.0000
  C   C100      1.0  0.72114  0.19005  0.20948  1.0000
  H   H56       1.0  0.66722  0.24804  0.13696  1.0000
  H   H57       1.0  0.71743  0.28446  0.14918  1.0000
  H   H58       1.0  0.72471  0.16311  0.21648  1.0000
  C   C101      1.0  0.83000  0.30081  0.23440  1.0000
  C   C102      1.0  0.83182  0.26575  0.24350  1.0000
  C   C103      1.0  0.80363  0.24666  0.23907  1.0000
  C   C104      1.0  0.77449  0.26263  0.21783  1.0000
  N   N15       1.0  0.77240  0.29635  0.20831  1.0000
  C   C105      1.0  0.79909  0.31455  0.21917  1.0000
  H   H59       1.0  0.85523  0.25444  0.25607  1.0000
  H   H60       1.0  0.80340  0.21951  0.24900  1.0000
  H   H61       1.0  0.79700  0.34168  0.20921  1.0000
  C   C106      1.0  0.32897  0.80056  0.23381  1.0000
  C   C107      1.0  0.33017  0.76556  0.24936  1.0000
  C   C108      1.0  0.30177  0.74649  0.24696  1.0000
  C   C109      1.0  0.27285  0.76238  0.22330  1.0000
  N   N16       1.0  0.27134  0.79604  0.20810  1.0000
  C   C110      1.0  0.29841  0.81421  0.21493  1.0000
  H   H62       1.0  0.35317  0.75423  0.26581  1.0000
  H   H63       1.0  0.30125  0.71940  0.26079  1.0000
  H   H64       1.0  0.29689  0.84122  0.19816  1.0000
  C   C111      1.0  0.96082  0.46363  0.75376  1.0000
  C   C112      1.0  0.46160  0.96364  0.74917  1.0000
  C   C113      1.0  0.02474  0.53405  0.74000  1.0000
  C   C114      1.0  0.52431  0.03531  0.73667  1.0000
  C   C115      1.0  0.96124  0.53507  0.76248  1.0000
  C   C116      1.0  0.46060  0.03539  0.76234  1.0000
  C   C117      1.0  0.02417  0.46239  0.73214  1.0000
  C   C118      1.0  0.52509  0.96362  0.72649  1.0000
  C   C119      1.0  0.93249  0.51713  0.74376  1.0000
  C   C120      1.0  0.43221  0.01691  0.74301  1.0000
  C   C121      1.0  0.05711  0.48082  0.68910  1.0000
  C   C122      1.0  0.55769  0.98265  0.68260  1.0000
  C   C123      1.0  0.93231  0.48296  0.73945  1.0000
  C   C124      1.0  0.43277  0.98271  0.73607  1.0000
  C   C125      1.0  0.05739  0.51492  0.69248  1.0000
  C   C126      1.0  0.55732  0.01674  0.68803  1.0000
  C   C127      1.0  0.96049  0.57033  0.78492  1.0000
  C   C128      1.0  0.45940  0.07071  0.78502  1.0000
  C   C129      1.0  0.02206  0.42692  0.75118  1.0000
  C   C130      1.0  0.52378  0.92809  0.74515  1.0000
  C   C131      1.0  0.95966  0.42812  0.76695  1.0000
  C   C132      1.0  0.46129  0.92801  0.75982  1.0000
  C   C133      1.0  0.02314  0.56923  0.76754  1.0000
  C   C134      1.0  0.52246  0.07056  0.76213  1.0000
  C   C135      1.0  0.05179  0.40590  0.75458  1.0000
  C   C136      1.0  0.05357  0.58902  0.77152  1.0000
  C   C137      1.0  0.55286  0.09083  0.76374  1.0000
  C   C138      1.0  0.07633  0.41719  0.82394  1.0000
  C   C139      1.0  0.07866  0.57595  0.83457  1.0000
  C   C140      1.0  0.57773  0.07852  0.83020  1.0000
  C   C141      1.0  0.10485  0.39708  0.82018  1.0000
  C   C142      1.0  0.10799  0.59494  0.82851  1.0000
  C   C143      1.0  0.60660  0.09813  0.82522  1.0000
  C   C144      1.0  0.10966  0.36469  0.74879  1.0000
  C   C145      1.0  0.11330  0.62798  0.76063  1.0000
  C   C146      1.0  0.61177  0.13094  0.75399  1.0000
  C   C147      1.0  0.08443  0.35276  0.68530  1.0000
  C   C148      1.0  0.08771  0.64161  0.70268  1.0000
  C   C149      1.0  0.58648  0.14377  0.69182  1.0000
  C   C150      1.0  0.05620  0.37293  0.68804  1.0000
  C   C151      1.0  0.05856  0.62258  0.70841  1.0000
  C   C152      1.0  0.55770  0.12419  0.69728  1.0000
  C   C153      1.0  0.84221  0.65665  0.82550  1.0000
  C   C154      1.0  0.33931  0.15451  0.82653  1.0000
  C   C155      1.0  0.13918  0.34387  0.75100  1.0000
  C   C156      1.0  0.64380  0.84853  0.74519  1.0000
  C   C157      1.0  0.84097  0.34320  0.81051  1.0000
  C   C158      1.0  0.34335  0.84166  0.80131  1.0000
  C   C159      1.0  0.14345  0.64770  0.76233  1.0000
  C   C160      1.0  0.64147  0.15124  0.75694  1.0000
  H   H65       1.0  0.91063  0.53117  0.73038  1.0000
  H   H66       1.0  0.40995  0.03051  0.73099  1.0000
  H   H67       1.0  0.08268  0.46737  0.65006  1.0000
  H   H68       1.0  0.58361  0.96967  0.64022  1.0000
  H   H69       1.0  0.91046  0.46994  0.72192  1.0000
  H   H70       1.0  0.41114  0.96952  0.71744  1.0000
  H   H71       1.0  0.08322  0.52784  0.65544  1.0000
  H   H72       1.0  0.58290  0.03011  0.65110  1.0000
  H   H73       1.0  0.07219  0.44148  0.88723  1.0000
  H   H74       1.0  0.07442  0.55105  0.89460  1.0000
  H   H75       1.0  0.57367  0.05377  0.89218  1.0000
  H   H76       1.0  0.12329  0.40627  0.87599  1.0000
  H   H77       1.0  0.12670  0.58451  0.88087  1.0000
  H   H78       1.0  0.62508  0.08837  0.88076  1.0000
  H   H79       1.0  0.08798  0.32763  0.63116  1.0000
  H   H80       1.0  0.09177  0.66712  0.64966  1.0000
  H   H81       1.0  0.59042  0.16913  0.63658  1.0000
  H   H82       1.0  0.03819  0.36375  0.62986  1.0000
  H   H83       1.0  0.04028  0.63316  0.65412  1.0000
  H   H84       1.0  0.53959  0.13420  0.64057  1.0000
  H   H85       1.0  0.81415  0.64740  0.90298  1.0000
  H   H86       1.0  0.31139  0.14488  0.90458  1.0000
  H   H87       1.0  0.15217  0.35221  0.83838  1.0000
  H   H88       1.0  0.65643  0.85754  0.83288  1.0000
  H   H89       1.0  0.81295  0.35143  0.89650  1.0000
  H   H90       1.0  0.31536  0.85066  0.88161  1.0000
  H   H91       1.0  0.15762  0.63691  0.84029  1.0000
  H   H92       1.0  0.65489  0.14140  0.84056  1.0000
  N   N17       1.0  0.84878  0.68531  0.74221  1.0000
  N   N18       1.0  0.34541  0.18308  0.74241  1.0000
  N   N19       1.0  0.14873  0.31640  0.66052  1.0000
  N   N20       1.0  0.65386  0.82102  0.65566  1.0000
  N   N21       1.0  0.84736  0.31529  0.72437  1.0000
  N   N22       1.0  0.34956  0.81293  0.72309  1.0000
  N   N23       1.0  0.15188  0.67671  0.68266  1.0000
  N   N24       1.0  0.65053  0.17970  0.67183  1.0000
  C   C161      1.0  0.99092  0.58594  0.79040  1.0000
  C   C162      1.0  0.48995  0.08683  0.78639  1.0000
  C   C163      1.0  0.98983  0.41118  0.76849  1.0000
  C   C164      1.0  0.49191  0.91171  0.76097  1.0000
  C   C165      1.0  0.99260  0.48088  0.74542  1.0000
  C   C166      1.0  0.49303  0.98152  0.74155  1.0000
  C   C167      1.0  0.99284  0.51672  0.74965  1.0000
  C   C168      1.0  0.49260  0.01744  0.74746  1.0000
  H   H93       1.0  0.98893  0.61250  0.81826  1.0000
  H   H94       1.0  0.48786  0.11347  0.81217  1.0000
  H   H95       1.0  0.98750  0.38430  0.78992  1.0000
  H   H96       1.0  0.49033  0.88477  0.78071  1.0000
  C   C169      1.0  0.17727  0.29760  0.66823  1.0000
  C   C170      1.0  0.17647  0.26268  0.65420  1.0000
  C   C171      1.0  0.20413  0.24361  0.66661  1.0000
  C   C172      1.0  0.23248  0.25962  0.69270  1.0000
  N   N25       1.0  0.23469  0.29336  0.69572  1.0000
  C   C173      1.0  0.20816  0.31146  0.68198  1.0000
  H   H97       1.0  0.15384  0.25132  0.63574  1.0000
  H   H98       1.0  0.20476  0.21657  0.65569  1.0000
  H   H99       1.0  0.21168  0.33853  0.67610  1.0000
  C   C174      1.0  0.68255  0.80229  0.66240  1.0000
  C   C175      1.0  0.68150  0.76736  0.64809  1.0000
  C   C176      1.0  0.70933  0.74818  0.65761  1.0000
  C   C177      1.0  0.73829  0.76397  0.67939  1.0000
  N   N26       1.0  0.74065  0.79768  0.68349  1.0000
  C   C178      1.0  0.71370  0.81594  0.67451  1.0000
  H   H100      1.0  0.65854  0.75615  0.63175  1.0000
  H   H101      1.0  0.70961  0.72113  0.64806  1.0000
  H   H102      1.0  0.71710  0.84301  0.67210  1.0000
  C   C179      1.0  0.82076  0.70476  0.73463  1.0000
  C   C180      1.0  0.82269  0.73979  0.74349  1.0000
  C   C181      1.0  0.79589  0.75948  0.72657  1.0000
  C   C182      1.0  0.76748  0.74407  0.69807  1.0000
  N   N27       1.0  0.76545  0.71044  0.68764  1.0000
  C   C183      1.0  0.79120  0.69173  0.70554  1.0000
  H   H103      1.0  0.84489  0.75065  0.76781  1.0000
  H   H104      1.0  0.79611  0.78659  0.73476  1.0000
  H   H105      1.0  0.78931  0.66478  0.69117  1.0000
  C   C184      1.0  0.31669  0.20202  0.73919  1.0000
  C   C185      1.0  0.31776  0.23703  0.75105  1.0000
  C   C186      1.0  0.28999  0.25618  0.74058  1.0000
  C   C187      1.0  0.26176  0.24020  0.71288  1.0000
  N   N28       1.0  0.26039  0.20656  0.70113  1.0000
  C   C188      1.0  0.28694  0.18837  0.71455  1.0000
  H   H106      1.0  0.34020  0.24832  0.77151  1.0000
  H   H107      1.0  0.28948  0.28325  0.75223  1.0000
  H   H108      1.0  0.28561  0.16138  0.69936  1.0000
  C   C189      1.0  0.18046  0.69547  0.68908  1.0000
  C   C190      1.0  0.18075  0.73009  0.65625  1.0000
  C   C191      1.0  0.20845  0.74970  0.66274  1.0000
  C   C192      1.0  0.23574  0.73445  0.70223  1.0000
  N   N29       1.0  0.23680  0.70091  0.72558  1.0000
  C   C193      1.0  0.21017  0.68233  0.71788  1.0000
  H   H109      1.0  0.15918  0.74077  0.62509  1.0000
  H   H110      1.0  0.21007  0.77648  0.63600  1.0000
  H   H111      1.0  0.21280  0.65538  0.73083  1.0000
  C   C194      1.0  0.67905  0.19852  0.67825  1.0000
  C   C195      1.0  0.67876  0.23332  0.65217  1.0000
  C   C196      1.0  0.70644  0.25279  0.65974  1.0000
  C   C197      1.0  0.73440  0.23725  0.69272  1.0000
  N   N30       1.0  0.73613  0.20360  0.70819  1.0000
  C   C198      1.0  0.70947  0.18514  0.69984  1.0000
  H   H112      1.0  0.65666  0.24426  0.62634  1.0000
  H   H113      1.0  0.70750  0.27973  0.63918  1.0000
  H   H114      1.0  0.71256  0.15810  0.70546  1.0000
  C   C199      1.0  0.81863  0.29588  0.72648  1.0000
  C   C200      1.0  0.82060  0.26084  0.73748  1.0000
  C   C201      1.0  0.79291  0.24143  0.72984  1.0000
  C   C202      1.0  0.76377  0.25709  0.70729  1.0000
  N   N31       1.0  0.76156  0.29075  0.69637  1.0000
  C   C203      1.0  0.78806  0.30924  0.70655  1.0000
  H   H115      1.0  0.84361  0.24980  0.75513  1.0000
  H   H116      1.0  0.79305  0.21430  0.73963  1.0000
  H   H117      1.0  0.78587  0.33628  0.69347  1.0000
  C   C204      1.0  0.32072  0.79341  0.72679  1.0000
  C   C205      1.0  0.32222  0.75842  0.74373  1.0000
  C   C206      1.0  0.29415  0.73892  0.74047  1.0000
  C   C207      1.0  0.26525  0.75440  0.71483  1.0000
  N   N32       1.0  0.26361  0.78798  0.69679  1.0000
  C   C208      1.0  0.29040  0.80655  0.70350  1.0000
  H   H118      1.0  0.34524  0.74743  0.76162  1.0000
  H   H119      1.0  0.29394  0.71186  0.75528  1.0000
  H   H120      1.0  0.28876  0.83346  0.68378  1.0000
  C  Sn1       1.0  0.41299  0.13501  0.66307  1.0000
  C   C209      1.0  0.37563  0.13069  0.77179  1.0000
  C  Sn2       1.0  0.36367  0.10796  0.91746  1.0000
  C  Sn3       1.0  0.38960  0.08918  0.95534  1.0000
  C   C210      1.0  0.42693  0.09351  0.84668  1.0000
  C  Sn4       1.0  0.43892  0.11623  0.70095  1.0000
  O  Te1       1.0  0.42433  0.15787  0.51815  1.0000
  O  Te2       1.0  0.41130  0.10662  0.02419  1.0000
  O  Te3       1.0  0.46336  0.06886  0.10040  1.0000
  O  Te4       1.0  0.47639  0.12014  0.59429  1.0000
  Mg  Mg1       1.0  0.40937  0.07242  0.20651  1.0000
  Mg  Mg2       1.0  0.47836  0.15434  0.41199  1.0000
  C  Sn5       1.0  0.88134  0.40909  0.36807  1.0000
  C   C211      1.0  0.88332  0.37905  0.27871  1.0000
  C  Sn6       1.0  0.91654  0.36208  0.19643  1.0000
  C  Sn7       1.0  0.94844  0.37540  0.20369  1.0000
  C   C212      1.0  0.94645  0.40542  0.29303  1.0000
  C  Sn8       1.0  0.91324  0.42241  0.37533  1.0000
  O  Te5       1.0  0.84785  0.42563  0.44939  1.0000
  O  Te6       1.0  0.91784  0.33209  0.10783  1.0000
  O  Te7       1.0  0.98195  0.35884  0.12227  1.0000
  O  Te8       1.0  0.91193  0.45238  0.46391  1.0000
  Mg  Mg3       1.0  0.96984  0.31881  0.01779  1.0000
  Mg  Mg4       1.0  0.85995  0.46568  0.55408  1.0000
  C  Sn9       1.0  0.58248  0.12898  0.14788  1.0000
  C   C213      1.0  0.57405  0.09603  0.21095  1.0000
  C  Sn10      1.0  0.58945  0.08162  0.32000  1.0000
  C  Sn11      1.0  0.61377  0.10055  0.36710  1.0000
  C   C214      1.0  0.62219  0.13348  0.30407  1.0000
  C  Sn12      1.0  0.60680  0.14791  0.19497  1.0000
  O  Te9       1.0  0.56676  0.14288  0.03903  1.0000
  O  Te10      1.0  0.58062  0.04863  0.38138  1.0000
  O  Te11      1.0  0.62949  0.08662  0.47603  1.0000
  O  Te12      1.0  0.61562  0.18088  0.13364  1.0000
  Mg  Mg5       1.0  0.60900  0.04078  0.52630  1.0000
  Mg  Mg6       1.0  0.50212  0.18621  0.98880  1.0000
  C  Sn13      1.0  0.86691  0.40532  0.87051  1.0000
  C   C215      1.0  0.86927  0.37533  0.78013  1.0000
  C  Sn14      1.0  0.90263  0.35857  0.69856  1.0000
  C  Sn15      1.0  0.93430  0.37205  0.70761  1.0000
  C   C216      1.0  0.93193  0.40202  0.79797  1.0000
  C  Sn16      1.0  0.89858  0.41880  0.87956  1.0000
  O  Te13      1.0  0.83327  0.42165  0.95109  1.0000
  O  Te14      1.0  0.90431  0.32863  0.60892  1.0000
  O  Te15      1.0  0.96795  0.35569  0.62693  1.0000
  O  Te16      1.0  0.89689  0.44872  0.96918  1.0000
  Mg  Mg7       1.0  0.95637  0.31565  0.52049  1.0000
  Mg  Mg8       1.0  0.92997  0.46427  0.05774  1.0000
  C  Sn17      1.0  0.55816  0.86518  0.73129  1.0000
  C   C217      1.0  0.54953  0.89822  0.78690  1.0000
  C  Sn18      1.0  0.57505  0.91851  0.81238  1.0000
  C  Sn19      1.0  0.60994  0.90552  0.78153  1.0000
  C   C218      1.0  0.61855  0.87250  0.72592  1.0000
  C  Sn20      1.0  0.59304  0.85219  0.70043  1.0000
  O  Te17      1.0  0.53222  0.84534  0.70665  1.0000
  O  Te18      1.0  0.56579  0.95146  0.86809  1.0000
  O  Te19      1.0  0.63587  0.92539  0.80622  1.0000
  O  Te20      1.0  0.60229  0.81926  0.64473  1.0000
  Mg  Mg9       1.0  0.61040  0.96866  0.88309  1.0000
  Mg  Mg10      1.0  0.55771  0.80204  0.62960  1.0000
  C  Sn21      1.0  0.42656  0.13452  0.14619  1.0000
  C   C219      1.0  0.38923  0.12957  0.25348  1.0000
  C  Sn22      1.0  0.37752  0.10757  0.40233  1.0000
  C  Sn23      1.0  0.40367  0.09017  0.44492  1.0000
  C   C220      1.0  0.44097  0.09513  0.33769  1.0000
  C  Sn24      1.0  0.45270  0.11712  0.18878  1.0000
  O  Te21      1.0  0.35251  0.15407  0.99803  1.0000
  O  Te22      1.0  0.34006  0.10303  0.50756  1.0000
  O  Te23      1.0  0.39255  0.06805  0.59322  1.0000
  O  Te24      1.0  0.49014  0.12167  0.08361  1.0000
  Mg  Mg11      1.0  0.33850  0.07028  0.69560  1.0000
  Mg  Mg12      1.0  0.40660  0.15187  0.89560  1.0000
  C  Sn25      1.0  0.43280  0.87563  0.62625  1.0000
  C   C221      1.0  0.43011  0.90544  0.71861  1.0000
  C  Sn26      1.0  0.39782  0.91344  0.86865  1.0000
  C  Sn27      1.0  0.36759  0.89116  0.92768  1.0000
  C   C222      1.0  0.37029  0.86137  0.83535  1.0000
  C  Sn28      1.0  0.40258  0.85335  0.68527  1.0000
  O  Te25      1.0  0.46536  0.86815  0.47660  1.0000
  O  Te26      1.0  0.39578  0.94339  0.95876  1.0000
  O  Te27      1.0  0.42015  0.90122  0.07745  1.0000
  O  Te28      1.0  0.40463  0.82342  0.59520  1.0000
  Mg  Mg13      1.0  0.43070  0.94502  0.15552  1.0000
  Mg  Mg14      1.0  0.45482  0.82432  0.39849  1.0000
  C  Sn29      1.0  0.88429  0.58181  0.88226  1.0000
  C   C223      1.0  0.92194  0.58684  0.78535  1.0000
  C  Sn30      1.0  0.93570  0.61845  0.71484  1.0000
  C  Sn31      1.0  0.91132  0.64561  0.74185  1.0000
  C   C224      1.0  0.87370  0.64058  0.83873  1.0000
  C  Sn32      1.0  0.85991  0.60897  0.90927  1.0000
  O  Te29      1.0  0.87115  0.55000  0.95154  1.0000
  O  Te30      1.0  0.97345  0.62287  0.61837  1.0000
  O  Te31      1.0  0.92450  0.67744  0.67247  1.0000
  O  Te32      1.0  0.90732  0.60711  0.00571  1.0000
  Mg  Mg15      1.0  0.97813  0.67092  0.55055  1.0000
  Mg  Mg16      1.0  0.90261  0.55908  0.07367  1.0000
