data_image0
_chemical_formula_structural       C50H22O8N8C8H10C56H24O8N8C8H12SnCSn2CSnTe4Mg2SnCSn2CSnTe4Mg2SnCSn2CSnTe4Mg2SnCSn2CSnTe4Mg2SnCSn2CSnTe4Mg2SnCSn2CSnTe4Mg2SnCSn2CSnTe4Mg2SnCSn2CSnTe4Mg2SnCSn2CSnTe4Mg2SnCSn2CSnTe4Mg2SnCSn2CSnTe4Mg2SnCSn2CSnTe4Mg2SnCSn2CSnTe4Mg2SnCSn2CSnTe4Mg2SnCSn2CSnTe4Mg2SnCSn2CSnTe4Mg2SnCSn2CSnTe4Mg2
_chemical_formula_sum              "C156 H68 O16 N16 Sn68 Te68 Mg34"
_cell_length_a       33.9465
_cell_length_b       34.8211
_cell_length_c       10.855
_cell_angle_alpha    85.0198
_cell_angle_beta     89.4342
_cell_angle_gamma    89.7783

_symmetry_space_group_name_H-M    'P1'
_space_group_IT_number       1

loop_
  _space_group_symop_operation_xyz
  'x, y, z'

loop_
  _atom_site_type_symbol
  _atom_site_label
  _atom_site_symmetry_multiplicity
  _atom_site_fract_x
  _atom_site_fract_y
  _atom_site_fract_z
  _atom_site_occupancy
  C   C1        1.0  0.46196  0.96139  0.99057  1.0000
  C   C2        1.0  0.96436  0.46022  0.01024  1.0000
  C   C3        1.0  0.53908  0.03968  0.00138  1.0000
  C   C4        1.0  0.03591  0.54321  0.01242  1.0000
  C   C5        1.0  0.46598  0.04359  0.00042  1.0000
  C   C6        1.0  0.96283  0.54280  0.00859  1.0000
  C   C7        1.0  0.53498  0.95785  0.00357  1.0000
  C   C8        1.0  0.03756  0.46142  0.01163  1.0000
  C   C9        1.0  0.42956  0.02444  0.98316  1.0000
  C   C10       1.0  0.92759  0.52102  0.99604  1.0000
  C   C11       1.0  0.57192  0.97755  0.99586  1.0000
  C   C12       1.0  0.07302  0.48354  0.00414  1.0000
  C   C13       1.0  0.42778  0.98543  0.97558  1.0000
  C   C14       1.0  0.92829  0.48165  0.99819  1.0000
  C   C15       1.0  0.57383  0.01677  0.99277  1.0000
  C   C16       1.0  0.07231  0.52266  0.00558  1.0000
  C   C17       1.0  0.46818  0.08416  0.00697  1.0000
  C   C18       1.0  0.96274  0.58355  0.01281  1.0000
  C   C19       1.0  0.53268  0.91707  0.00932  1.0000
  C   C20       1.0  0.03824  0.42064  0.01402  1.0000
  C   C21       1.0  0.46052  0.92047  0.99118  1.0000
  C   C22       1.0  0.96589  0.41938  0.01397  1.0000
  C   C23       1.0  0.54046  0.08034  0.00383  1.0000
  C   C24       1.0  0.03497  0.58376  0.01591  1.0000
  C   C25       1.0  0.32912  0.17945  0.03667  1.0000
  C   C26       1.0  0.81832  0.67148  0.02395  1.0000
  C   C27       1.0  0.67226  0.82323  0.06555  1.0000
  C   C28       1.0  0.18386  0.33454  0.02615  1.0000
  C   C29       1.0  0.32306  0.82413  0.98083  1.0000
  C   C30       1.0  0.82755  0.32281  0.04941  1.0000
  C   C31       1.0  0.67915  0.17370  0.01607  1.0000
  C   C32       1.0  0.17666  0.67277  0.05122  1.0000
  C   C33       1.0  0.29300  0.76487  0.95094  1.0000
  C   C34       1.0  0.22700  0.71323  0.96260  1.0000
  C   C35       1.0  0.77727  0.72295  0.95995  1.0000
  C   C36       1.0  0.28970  0.23386  0.96682  1.0000
  C   C37       1.0  0.22730  0.28938  0.95226  1.0000
  C   C38       1.0  0.71316  0.77446  0.98792  1.0000
  C   C39       1.0  0.28848  0.73681  0.86475  1.0000
  C   C40       1.0  0.25606  0.71254  0.86803  1.0000
  C   C41       1.0  0.74544  0.72444  0.87617  1.0000
  C   C42       1.0  0.29050  0.26719  0.88148  1.0000
  C   C43       1.0  0.25945  0.29316  0.86928  1.0000
  C   C44       1.0  0.71391  0.74907  0.89225  1.0000
  C   C45       1.0  0.23262  0.73881  0.05564  1.0000
  C   C46       1.0  0.26520  0.76361  0.04996  1.0000
  C   C47       1.0  0.74574  0.77338  0.07037  1.0000
  C   C48       1.0  0.22645  0.25725  0.04095  1.0000
  C   C49       1.0  0.25653  0.22928  0.04762  1.0000
  C   C50       1.0  0.77719  0.74765  0.05684  1.0000
  H   H1        1.0  0.40301  0.04191  0.97247  1.0000
  H   H2        1.0  0.89973  0.53634  0.98399  1.0000
  H   H3        1.0  0.59881  0.96086  0.98860  1.0000
  H   H4        1.0  0.10088  0.46847  0.99635  1.0000
  H   H5        1.0  0.39974  0.97223  0.95753  1.0000
  H   H6        1.0  0.90110  0.46591  0.98783  1.0000
  H   H7        1.0  0.60216  0.03113  0.98267  1.0000
  H   H8        1.0  0.09957  0.53901  0.99879  1.0000
  H   H9        1.0  0.30898  0.17033  0.11223  1.0000
  H   H10       1.0  0.79771  0.66332  0.10014  1.0000
  H   H11       1.0  0.69053  0.82739  0.14535  1.0000
  H   H12       1.0  0.20103  0.33509  0.11099  1.0000
  H   H13       1.0  0.29624  0.83456  0.02491  1.0000
  H   H14       1.0  0.81240  0.32159  0.13885  1.0000
  H   H15       1.0  0.70330  0.15996  0.06996  1.0000
  H   H16       1.0  0.18803  0.67445  0.14427  1.0000
  H   H17       1.0  0.31077  0.73485  0.79265  1.0000
  H   H18       1.0  0.25213  0.69219  0.79779  1.0000
  H   H19       1.0  0.74722  0.70715  0.79760  1.0000
  H   H20       1.0  0.31551  0.26971  0.81835  1.0000
  H   H21       1.0  0.26041  0.31741  0.79894  1.0000
  H   H22       1.0  0.68989  0.75206  0.82661  1.0000
  O   O1        1.0  0.73592  0.20835  0.18355  1.0000
  O   O2        1.0  0.20576  0.74035  0.15089  1.0000
  O   O3        1.0  0.26833  0.78569  0.15046  1.0000
  O   O4        1.0  0.79084  0.25984  0.18315  1.0000
  O   O5        1.0  0.74596  0.79651  0.16587  1.0000
  O   O6        1.0  0.19454  0.24906  0.12044  1.0000
  O   O7        1.0  0.25414  0.19854  0.13596  1.0000
  O   O8        1.0  0.80757  0.74867  0.14078  1.0000
  N   N1        1.0  0.32256  0.20980  0.96085  1.0000
  N   N2        1.0  0.81051  0.69963  0.94251  1.0000
  N   N3        1.0  0.68016  0.79822  0.98636  1.0000
  N   N4        1.0  0.19488  0.31429  0.93792  1.0000
  N   N5        1.0  0.32475  0.79057  0.93609  1.0000
  N   N6        1.0  0.81491  0.30494  0.95759  1.0000
  N   N7        1.0  0.68196  0.20811  0.95934  1.0000
  N   N8        1.0  0.19394  0.68978  0.95481  1.0000
  C   C51       1.0  0.50527  0.10139  0.00632  1.0000
  C   C52       1.0  0.99878  0.60307  0.01492  1.0000
  C   C53       1.0  0.49590  0.89954  0.00145  1.0000
  C   C54       1.0  0.00253  0.40070  0.01374  1.0000
  C   C55       1.0  0.49938  0.98005  0.99919  1.0000
  C   C56       1.0  0.00047  0.48128  0.01105  1.0000
  C   C57       1.0  0.50147  0.02112  0.00088  1.0000
  C   C58       1.0  0.99967  0.52240  0.01088  1.0000
  H   H23       1.0  0.50693  0.13233  0.01305  1.0000
  H   H24       1.0  0.99887  0.63408  0.02183  1.0000
  H   H25       1.0  0.49423  0.86823  0.00899  1.0000
  H   H26       1.0  0.00307  0.36934  0.01952  1.0000
  H   H27       1.0  0.29629  0.79226  0.15720  1.0000
  H   H28       1.0  0.21811  0.75539  0.21138  1.0000
  H   H29       1.0  0.23328  0.20360  0.19585  1.0000
  H   H30       1.0  0.82876  0.73204  0.11653  1.0000
  H   H31       1.0  0.76641  0.78599  0.22238  1.0000
  H   H32       1.0  0.17334  0.26665  0.09825  1.0000
  C   C59       1.0  0.46142  0.95843  0.50256  1.0000
  C   C60       1.0  0.96317  0.45707  0.49167  1.0000
  C   C61       1.0  0.53755  0.03850  0.49759  1.0000
  C   C62       1.0  0.03506  0.54027  0.49408  1.0000
  C   C63       1.0  0.46434  0.04090  0.49920  1.0000
  C   C64       1.0  0.96197  0.53921  0.48972  1.0000
  C   C65       1.0  0.53464  0.95599  0.51148  1.0000
  C   C66       1.0  0.03636  0.45778  0.49260  1.0000
  C   C67       1.0  0.42829  0.02107  0.48337  1.0000
  C   C68       1.0  0.92644  0.51756  0.48106  1.0000
  C   C69       1.0  0.57109  0.97634  0.49628  1.0000
  C   C70       1.0  0.07185  0.48001  0.48921  1.0000
  C   C71       1.0  0.42694  0.98185  0.48375  1.0000
  C   C72       1.0  0.92696  0.47828  0.48315  1.0000
  C   C73       1.0  0.57236  0.01572  0.48636  1.0000
  C   C74       1.0  0.07125  0.51927  0.49009  1.0000
  C   C75       1.0  0.46586  0.08156  0.50365  1.0000
  C   C76       1.0  0.96191  0.57990  0.49127  1.0000
  C   C77       1.0  0.53295  0.91512  0.51922  1.0000
  C   C78       1.0  0.03663  0.41687  0.49327  1.0000
  C   C79       1.0  0.46037  0.91740  0.50810  1.0000
  C   C80       1.0  0.96413  0.41619  0.49521  1.0000
  C   C81       1.0  0.53836  0.07945  0.49758  1.0000
  C   C82       1.0  0.03407  0.58104  0.49561  1.0000
  C   C83       1.0  0.32472  0.17397  0.50364  1.0000
  C   C84       1.0  0.81616  0.66414  0.50649  1.0000
  C   C85       1.0  0.67072  0.81758  0.54167  1.0000
  C   C86       1.0  0.18246  0.33097  0.52489  1.0000
  C   C87       1.0  0.32241  0.82073  0.49552  1.0000
  C   C88       1.0  0.81869  0.33028  0.53224  1.0000
  C   C89       1.0  0.67514  0.17797  0.47996  1.0000
  C   C90       1.0  0.17690  0.66740  0.55124  1.0000
  C   C91       1.0  0.77129  0.29105  0.45193  1.0000
  C   C92       1.0  0.29246  0.76089  0.47095  1.0000
  C   C93       1.0  0.22702  0.70913  0.46861  1.0000
  C   C94       1.0  0.70621  0.23851  0.45594  1.0000
  C   C95       1.0  0.77442  0.71556  0.44593  1.0000
  C   C96       1.0  0.29049  0.23208  0.45244  1.0000
  C   C97       1.0  0.22672  0.28588  0.44792  1.0000
  C   C98       1.0  0.70975  0.76752  0.46804  1.0000
  C   C99       1.0  0.73720  0.29988  0.38078  1.0000
  C   C100      1.0  0.29142  0.73091  0.39011  1.0000
  C   C101      1.0  0.25905  0.70682  0.38536  1.0000
  C   C102      1.0  0.70528  0.27482  0.38469  1.0000
  C   C103      1.0  0.74494  0.71923  0.35558  1.0000
  C   C104      1.0  0.28080  0.25498  0.34347  1.0000
  C   C105      1.0  0.24811  0.27912  0.34015  1.0000
  C   C106      1.0  0.71287  0.74317  0.37072  1.0000
  C   C107      1.0  0.74023  0.23009  0.53105  1.0000
  C   C108      1.0  0.22856  0.73752  0.55509  1.0000
  C   C109      1.0  0.26001  0.76377  0.55412  1.0000
  C   C110      1.0  0.77228  0.25554  0.52800  1.0000
  C   C111      1.0  0.74055  0.76455  0.55642  1.0000
  C   C112      1.0  0.23817  0.26453  0.55861  1.0000
  C   C113      1.0  0.26788  0.23629  0.55977  1.0000
  C   C114      1.0  0.77189  0.73831  0.54650  1.0000
  H   H33       1.0  0.40156  0.03795  0.46778  1.0000
  H   H34       1.0  0.89850  0.53286  0.47298  1.0000
  H   H35       1.0  0.59804  0.95965  0.48947  1.0000
  H   H36       1.0  0.09992  0.46514  0.48431  1.0000
  H   H37       1.0  0.39912  0.96817  0.46656  1.0000
  H   H38       1.0  0.89965  0.46241  0.47597  1.0000
  H   H39       1.0  0.60037  0.03009  0.46721  1.0000
  H   H40       1.0  0.09862  0.53544  0.48730  1.0000
  H   H41       1.0  0.29928  0.16017  0.55256  1.0000
  H   H42       1.0  0.79530  0.65383  0.57970  1.0000
  H   H43       1.0  0.68992  0.82068  0.62021  1.0000
  H   H44       1.0  0.19967  0.33326  0.60830  1.0000
  H   H45       1.0  0.29471  0.83413  0.52533  1.0000
  H   H46       1.0  0.80284  0.32921  0.62047  1.0000
  H   H47       1.0  0.70231  0.16319  0.51200  1.0000
  H   H48       1.0  0.18829  0.66801  0.64479  1.0000
  H   H49       1.0  0.73591  0.32670  0.32074  1.0000
  H   H50       1.0  0.31657  0.72709  0.32822  1.0000
  H   H51       1.0  0.25823  0.68464  0.31948  1.0000
  H   H52       1.0  0.67887  0.28282  0.33095  1.0000
  H   H53       1.0  0.74734  0.70179  0.27718  1.0000
  H   H54       1.0  0.29788  0.25016  0.26125  1.0000
  H   H55       1.0  0.23791  0.29333  0.25396  1.0000
  H   H56       1.0  0.69065  0.74728  0.29968  1.0000
  O   O9        1.0  0.74613  0.19626  0.61144  1.0000
  O   O10       1.0  0.19770  0.73997  0.63762  1.0000
  O   O11       1.0  0.25684  0.79097  0.64072  1.0000
  O   O12       1.0  0.80449  0.24596  0.59973  1.0000
  O   O13       1.0  0.74035  0.78596  0.65569  1.0000
  O   O14       1.0  0.21697  0.26922  0.66343  1.0000
  O   O15       1.0  0.27419  0.21494  0.67135  1.0000
  O   O16       1.0  0.80034  0.73903  0.63673  1.0000
  N   N9        1.0  0.32358  0.20857  0.44866  1.0000
  N   N10       1.0  0.80829  0.69341  0.42935  1.0000
  N   N11       1.0  0.67715  0.79231  0.46272  1.0000
  N   N12       1.0  0.19382  0.31029  0.43729  1.0000
  N   N13       1.0  0.32508  0.78553  0.46337  1.0000
  N   N14       1.0  0.80456  0.31455  0.43835  1.0000
  N   N15       1.0  0.67319  0.21490  0.44622  1.0000
  N   N16       1.0  0.19443  0.68524  0.45693  1.0000
  C   C115      1.0  0.50253  0.09947  0.50315  1.0000
  C   C116      1.0  0.99763  0.59993  0.49074  1.0000
  C   C117      1.0  0.49626  0.89708  0.51643  1.0000
  C   C118      1.0  0.00062  0.39721  0.49247  1.0000
  C   C119      1.0  0.49868  0.97774  0.50670  1.0000
  C   C120      1.0  0.99948  0.47802  0.49096  1.0000
  C   C121      1.0  0.50022  0.01903  0.50275  1.0000
  C   C122      1.0  0.99890  0.51920  0.49100  1.0000
  H   H57       1.0  0.50327  0.13041  0.51084  1.0000
  H   H58       1.0  0.99690  0.63105  0.49454  1.0000
  H   H59       1.0  0.49582  0.86571  0.52425  1.0000
  H   H60       1.0  0.00108  0.36585  0.49692  1.0000
  H   H61       1.0  0.28396  0.79739  0.66221  1.0000
  H   H62       1.0  0.79761  0.22232  0.65144  1.0000
  H   H63       1.0  0.72385  0.19420  0.66848  1.0000
  H   H64       1.0  0.20623  0.75687  0.70041  1.0000
  H   H65       1.0  0.30173  0.20651  0.67389  1.0000
  H   H66       1.0  0.82475  0.72654  0.61157  1.0000
  H   H67       1.0  0.75937  0.77451  0.71402  1.0000
  H   H68       1.0  0.23041  0.25466  0.73206  1.0000
  C  Sn1       1.0  0.38141  0.12286  0.13943  1.0000
  C   C123      1.0  0.37172  0.15591  0.06329  1.0000
  C  Sn2       1.0  0.38850  0.13742  0.95093  1.0000
  C  Sn3       1.0  0.41861  0.11241  0.91385  1.0000
  C   C124      1.0  0.42828  0.07938  0.98996  1.0000
  C  Sn4       1.0  0.41153  0.09785  0.10235  1.0000
  O  Te1       1.0  0.36121  0.11487  0.25136  1.0000
  O  Te2       1.0  0.37830  0.17064  0.87640  1.0000
  O  Te3       1.0  0.43882  0.12042  0.80182  1.0000
  O  Te4       1.0  0.42171  0.06465  0.17685  1.0000
  Mg  Mg1       1.0  0.41429  0.16912  0.73225  1.0000
  Mg  Mg2       1.0  0.38573  0.06613  0.32097  1.0000
  C  Sn5       1.0  0.87324  0.61924  0.13828  1.0000
  C   C125      1.0  0.86158  0.65028  0.05632  1.0000
  C  Sn6       1.0  0.87778  0.63072  0.94250  1.0000
  C  Sn7       1.0  0.90934  0.60666  0.90986  1.0000
  C   C126      1.0  0.92098  0.57564  0.99177  1.0000
  C  Sn8       1.0  0.90480  0.59519  0.10564  1.0000
  O  Te5       1.0  0.85357  0.61230  0.25158  1.0000
  O  Te6       1.0  0.86561  0.66193  0.86212  1.0000
  O  Te7       1.0  0.92901  0.61363  0.79645  1.0000
  O  Te8       1.0  0.91695  0.56400  0.18598  1.0000
  Mg  Mg3       1.0  0.90160  0.65962  0.71830  1.0000
  Mg  Mg4       1.0  0.88097  0.56626  0.32978  1.0000
  C  Sn9       1.0  0.61603  0.87251  0.15953  1.0000
  C   C127      1.0  0.62900  0.84447  0.08375  1.0000
  C  Sn10      1.0  0.61037  0.81586  0.96566  1.0000
  C  Sn11      1.0  0.58124  0.84292  0.92237  1.0000
  C   C128      1.0  0.56829  0.87095  0.99812  1.0000
  C  Sn12      1.0  0.58690  0.89957  0.11624  1.0000
  O  Te9       1.0  0.63202  0.87353  0.27725  1.0000
  O  Te10      1.0  0.62379  0.78756  0.89161  1.0000
  O  Te11      1.0  0.56526  0.84188  0.80455  1.0000
  O  Te12      1.0  0.57349  0.92786  0.19026  1.0000
  Mg  Mg5       1.0  0.59306  0.79794  0.73818  1.0000
  Mg  Mg6       1.0  0.60422  0.91751  0.34367  1.0000
  C  Sn13      1.0  0.12692  0.37830  0.14044  1.0000
  C   C129      1.0  0.14061  0.35344  0.05500  1.0000
  C  Sn14      1.0  0.12004  0.32637  0.93910  1.0000
  C  Sn15      1.0  0.08820  0.35174  0.90791  1.0000
  C   C130      1.0  0.07453  0.37658  0.99331  1.0000
  C  Sn16      1.0  0.09508  0.40367  0.10925  1.0000
  O  Te13      1.0  0.14488  0.37783  0.25576  1.0000
  O  Te14      1.0  0.13423  0.30125  0.85524  1.0000
  O  Te15      1.0  0.07024  0.35219  0.79248  1.0000
  O  Te16      1.0  0.08091  0.42878  0.19308  1.0000
  Mg  Mg7       1.0  0.10008  0.31262  0.70972  1.0000
  Mg  Mg8       1.0  0.11505  0.41745  0.33858  1.0000
  C  Sn17      1.0  0.41271  0.86785  0.87215  1.0000
  C   C131      1.0  0.41837  0.89898  0.94307  1.0000
  C  Sn18      1.0  0.39643  0.93152  0.04309  1.0000
  C  Sn19      1.0  0.36516  0.90535  0.07292  1.0000
  C   C132      1.0  0.35953  0.87425  0.00205  1.0000
  C  Sn20      1.0  0.38144  0.84168  0.90198  1.0000
  O  Te17      1.0  0.43805  0.86292  0.77257  1.0000
  O  Te18      1.0  0.40266  0.96285  0.11260  1.0000
  O  Te19      1.0  0.33983  0.91031  0.17260  1.0000
  O  Te20      1.0  0.37523  0.81037  0.83252  1.0000
  Mg  Mg9       1.0  0.36030  0.95734  0.23951  1.0000
  Mg  Mg10      1.0  0.41759  0.81585  0.70563  1.0000
  C  Sn21      1.0  0.87063  0.38581  0.11670  1.0000
  C   C133      1.0  0.86023  0.35790  0.03795  1.0000
  C  Sn22      1.0  0.88442  0.31852  0.95238  1.0000
  C  Sn23      1.0  0.92286  0.33442  0.94541  1.0000
  C   C134      1.0  0.93630  0.38936  0.02413  1.0000
  C  Sn24      1.0  0.90907  0.40171  0.10972  1.0000
  O  Te21      1.0  0.84292  0.39770  0.20154  1.0000
  O  Te22      1.0  0.87334  0.29059  0.87460  1.0000
  O  Te23      1.0  0.95057  0.32250  0.86046  1.0000
  O  Te24      1.0  0.92014  0.42962  0.18748  1.0000
  Mg  Mg11      1.0  0.92150  0.28373  0.77441  1.0000
  Mg  Mg12      1.0  0.87201  0.43649  0.28775  1.0000
  C  Sn25      1.0  0.60068  0.16208  0.93897  1.0000
  C   C135      1.0  0.63628  0.18421  0.01665  1.0000
  C  Sn26      1.0  0.64341  0.14868  0.08274  1.0000
  C  Sn27      1.0  0.61748  0.11740  0.07089  1.0000
  C   C136      1.0  0.58191  0.09527  0.99323  1.0000
  C  Sn28      1.0  0.57475  0.13080  0.92712  1.0000
  O  Te25      1.0  0.59412  0.19786  0.87377  1.0000
  O  Te26      1.0  0.67613  0.14446  0.15986  1.0000
  O  Te27      1.0  0.62406  0.08160  0.13617  1.0000
  O  Te28      1.0  0.54205  0.13502  0.85003  1.0000
  Mg  Mg13      1.0  0.67260  0.09010  0.22950  1.0000
  Mg  Mg14      1.0  0.54557  0.18936  0.78030  1.0000
  C  Sn29      1.0  0.09642  0.63015  0.90464  1.0000
  C   C137      1.0  0.07974  0.60374  0.99438  1.0000
  C  Sn30      1.0  0.09535  0.62925  0.11687  1.0000
  C  Sn31      1.0  0.12519  0.65467  0.15039  1.0000
  C   C138      1.0  0.14185  0.68107  0.06068  1.0000
  C  Sn32      1.0  0.12626  0.65556  0.93816  1.0000
  O  Te29      1.0  0.08341  0.63117  0.78274  1.0000
  O  Te30      1.0  0.07825  0.60259  0.20495  1.0000
  O  Te31      1.0  0.13819  0.65362  0.27240  1.0000
  O  Te32      1.0  0.14334  0.68221  0.85012  1.0000
  Mg  Mg15      1.0  0.10587  0.61227  0.35898  1.0000
  Mg  Mg16      1.0  0.11572  0.67257  0.69608  1.0000
  C  Sn33      1.0  0.73884  0.24399  0.09260  1.0000
  C   C139      1.0  0.71656  0.21023  0.98329  1.0000
  C  Sn34      1.0  0.73288  0.22326  0.86866  1.0000
  C  Sn35      1.0  0.76919  0.24338  0.86316  1.0000
  C   C140      1.0  0.78840  0.25007  0.97242  1.0000
  C  Sn36      1.0  0.77514  0.26411  0.08711  1.0000
  O  Te33      1.0  0.72198  0.23071  0.20618  1.0000
  O  Te34      1.0  0.71311  0.21622  0.76063  1.0000
  O  Te35      1.0  0.78603  0.25666  0.74946  1.0000
  O  Te36      1.0  0.79490  0.27113  0.19508  1.0000
  Mg  Mg17      1.0  0.74792  0.24001  0.62810  1.0000
  Mg  Mg18      1.0  0.76013  0.24734  0.32765  1.0000
  C  Sn37      1.0  0.38535  0.09181  0.56584  1.0000
  C   C141      1.0  0.42021  0.09887  0.49822  1.0000
  C  Sn38      1.0  0.42709  0.13498  0.43538  1.0000
  C  Sn39      1.0  0.39854  0.16467  0.44028  1.0000
  C   C142      1.0  0.36371  0.15761  0.50789  1.0000
  C  Sn40      1.0  0.35680  0.12150  0.57074  1.0000
  O  Te37      1.0  0.37910  0.05549  0.62795  1.0000
  O  Te38      1.0  0.46215  0.14135  0.36835  1.0000
  O  Te39      1.0  0.40482  0.20101  0.37809  1.0000
  O  Te40      1.0  0.32177  0.11514  0.63775  1.0000
  Mg  Mg19      1.0  0.45715  0.19565  0.29929  1.0000
  Mg  Mg20      1.0  0.32675  0.06086  0.70689  1.0000
  C  Sn41      1.0  0.88388  0.58872  0.58114  1.0000
  C   C143      1.0  0.91465  0.59382  0.49488  1.0000
  C  Sn42      1.0  0.91669  0.62725  0.41408  1.0000
  C  Sn43      1.0  0.88737  0.65620  0.41965  1.0000
  C   C144      1.0  0.85663  0.65109  0.50588  1.0000
  C  Sn44      1.0  0.85456  0.61766  0.58671  1.0000
  O  Te41      1.0  0.88243  0.55507  0.66102  1.0000
  O  Te42      1.0  0.94774  0.63170  0.32861  1.0000
  O  Te43      1.0  0.88885  0.68986  0.33967  1.0000
  O  Te44      1.0  0.82354  0.61321  0.67215  1.0000
  Mg  Mg21      1.0  0.93691  0.68263  0.23946  1.0000
  Mg  Mg22      1.0  0.83436  0.56231  0.76139  1.0000
  C  Sn45      1.0  0.61805  0.86683  0.64911  1.0000
  C   C145      1.0  0.62915  0.84054  0.56482  1.0000
  C  Sn46      1.0  0.61156  0.84179  0.44875  1.0000
  C  Sn47      1.0  0.58227  0.86992  0.41620  1.0000
  C   C146      1.0  0.57119  0.89619  0.50045  1.0000
  C  Sn48      1.0  0.58876  0.89495  0.61656  1.0000
  O  Te45      1.0  0.63603  0.86505  0.76464  1.0000
  O  Te46      1.0  0.62313  0.81519  0.36605  1.0000
  O  Te47      1.0  0.56429  0.87168  0.30056  1.0000
  O  Te48      1.0  0.57721  0.92153  0.69922  1.0000
  Mg  Mg23      1.0  0.59005  0.82924  0.21972  1.0000
  Mg  Mg24      1.0  0.61029  0.90752  0.84554  1.0000
  C  Sn49      1.0  0.11391  0.40372  0.58756  1.0000
  C   C147      1.0  0.08476  0.40262  0.49792  1.0000
  C  Sn50      1.0  0.08423  0.37285  0.41963  1.0000
  C  Sn51      1.0  0.11342  0.34354  0.43120  1.0000
  C   C148      1.0  0.14254  0.34465  0.52080  1.0000
  C  Sn52      1.0  0.14311  0.37442  0.59913  1.0000
  O  Te49      1.0  0.11387  0.43376  0.66484  1.0000
  O  Te50      1.0  0.05480  0.37237  0.33069  1.0000
  O  Te51      1.0  0.11344  0.31349  0.35381  1.0000
  O  Te52      1.0  0.17251  0.37490  0.68803  1.0000
  Mg  Mg25      1.0  0.06728  0.32543  0.24708  1.0000
  Mg  Mg26      1.0  0.16004  0.42182  0.77173  1.0000
  C  Sn53      1.0  0.41412  0.86213  0.39498  1.0000
  C   C149      1.0  0.41821  0.89527  0.45766  1.0000
  C  Sn54      1.0  0.39185  0.90281  0.55226  1.0000
  C  Sn55      1.0  0.36076  0.87667  0.58497  1.0000
  C   C150      1.0  0.35669  0.84356  0.52232  1.0000
  C  Sn56      1.0  0.38304  0.83599  0.42768  1.0000
  O  Te53      1.0  0.44082  0.85517  0.30070  1.0000
  O  Te54      1.0  0.39653  0.93614  0.61356  1.0000
  O  Te55      1.0  0.33406  0.88367  0.67933  1.0000
  O  Te56      1.0  0.37837  0.80269  0.36642  1.0000
  Mg  Mg27      1.0  0.35268  0.93296  0.73562  1.0000
  Mg  Mg28      1.0  0.42221  0.80582  0.24440  1.0000
  C  Sn57      1.0  0.89892  0.38370  0.63520  1.0000
  C   C151      1.0  0.92704  0.38517  0.54000  1.0000
  C  Sn58      1.0  0.91827  0.37103  0.42691  1.0000
  C  Sn59      1.0  0.88060  0.35510  0.40855  1.0000
  C   C152      1.0  0.85251  0.35364  0.50370  1.0000
  C  Sn60      1.0  0.86126  0.36777  0.61684  1.0000
  O  Te57      1.0  0.90833  0.39800  0.74749  1.0000
  O  Te58      1.0  0.94686  0.37280  0.33313  1.0000
  O  Te59      1.0  0.87121  0.34079  0.29614  1.0000
  O  Te60      1.0  0.83269  0.36601  0.71057  1.0000
  Mg  Mg29      1.0  0.92001  0.34962  0.19656  1.0000
  Mg  Mg30      1.0  0.85950  0.38920  0.84714  1.0000
  C  Sn61      1.0  0.61448  0.10066  0.58927  1.0000
  C   C153      1.0  0.57775  0.10697  0.53397  1.0000
  C  Sn62      1.0  0.57314  0.13539  0.43615  1.0000
  C  Sn63      1.0  0.60592  0.15796  0.39262  1.0000
  C   C154      1.0  0.64263  0.15164  0.44790  1.0000
  C  Sn64      1.0  0.64727  0.12323  0.54575  1.0000
  O  Te61      1.0  0.61842  0.07209  0.68694  1.0000
  O  Te62      1.0  0.53612  0.14117  0.38237  1.0000
  O  Te63      1.0  0.60196  0.18655  0.29487  1.0000
  O  Te64      1.0  0.68426  0.11744  0.59950  1.0000
  Mg  Mg31      1.0  0.54560  0.18354  0.25181  1.0000
  Mg  Mg32      1.0  0.67482  0.07507  0.73001  1.0000
  C  Sn65      1.0  0.09630  0.62950  0.39615  1.0000
  C   C155      1.0  0.07858  0.60208  0.48047  1.0000
  C  Sn66      1.0  0.09004  0.59850  0.60420  1.0000
  C  Sn67      1.0  0.11980  0.62286  0.64452  1.0000
  C   C156      1.0  0.13750  0.65026  0.56023  1.0000
  C  Sn68      1.0  0.12607  0.65385  0.43648  1.0000
  O  Te65      1.0  0.08439  0.63257  0.27291  1.0000
  O  Te66      1.0  0.07190  0.57087  0.68677  1.0000
  O  Te67      1.0  0.13171  0.61976  0.76788  1.0000
  O  Te68      1.0  0.14418  0.68147  0.35394  1.0000
  Mg  Mg33      1.0  0.09824  0.57775  0.84525  1.0000
  Mg  Mg34      1.0  0.11786  0.67464  0.19546  1.0000
