data_image0
_chemical_formula_structural       C32H16N8C8H4C4NCH3C2NC3H3C4NCH3C2NC3H3C4NCH3C2NC3H3C4NCH3C2NC3H3C32H16N8C8H4C4NCH3C2NC3H3C4NCH3C2NC3H3C4NCH3C2NC3H3C4NCH3C2NC3H3C2Sn2C2HTe2HMgC2Sn2C2HTe2HMgC2Sn2C2HTe2HMgC2Sn2C2HTe2HMgC2Sn2C2HTe2HMgC2Sn2C2HTe2HMgC2Sn2C2HTe2HMgC2Sn2C2HTe2HMgC2Sn2C2HTe2HMgC2Sn2C2HTe2HMgC2Sn2C2HTe2HMgC2Sn2C2HTe2HMgC2Sn2C2HTe2HMgC2Sn2C2HTe2HMgC2Sn2C2HTe2HMgC2Sn2C2HTe2HMg
_chemical_formula_sum              "C224 H120 N32 Sn32 Te32 Mg16"
_cell_length_a       37.9516
_cell_length_b       42.6969
_cell_length_c       8.08325
_cell_angle_alpha    90.5651
_cell_angle_beta     88.5915
_cell_angle_gamma    90.0067

_symmetry_space_group_name_H-M    'P1'
_space_group_IT_number       1

loop_
  _space_group_symop_operation_xyz
  'x, y, z'

loop_
  _atom_site_type_symbol
  _atom_site_label
  _atom_site_symmetry_multiplicity
  _atom_site_fract_x
  _atom_site_fract_y
  _atom_site_fract_z
  _atom_site_occupancy
  C   C1        1.0  0.96838  0.46676  0.16747  1.0000
  C   C2        1.0  0.46824  0.96751  0.29452  1.0000
  C   C3        1.0  0.03485  0.53302  0.17936  1.0000
  C   C4        1.0  0.53363  0.03470  0.30289  1.0000
  C   C5        1.0  0.96931  0.53360  0.16676  1.0000
  C   C6        1.0  0.46817  0.03445  0.29905  1.0000
  C   C7        1.0  0.03383  0.46589  0.18411  1.0000
  C   C8        1.0  0.53381  0.96753  0.29662  1.0000
  C   C9        1.0  0.93784  0.51643  0.13528  1.0000
  C   C10       1.0  0.43678  0.01696  0.27036  1.0000
  C   C11       1.0  0.06603  0.48298  0.16666  1.0000
  C   C12       1.0  0.56555  0.98521  0.27518  1.0000
  C   C13       1.0  0.93740  0.48442  0.13528  1.0000
  C   C14       1.0  0.43683  0.98497  0.26814  1.0000
  C   C15       1.0  0.06650  0.51499  0.16277  1.0000
  C   C16       1.0  0.56540  0.01723  0.27811  1.0000
  C   C17       1.0  0.96965  0.56673  0.18685  1.0000
  C   C18       1.0  0.46829  0.06761  0.31555  1.0000
  C   C19       1.0  0.03269  0.43281  0.20242  1.0000
  C   C20       1.0  0.53333  0.93429  0.30814  1.0000
  C   C21       1.0  0.96788  0.43374  0.18594  1.0000
  C   C22       1.0  0.46831  0.93433  0.30847  1.0000
  C   C23       1.0  0.03476  0.56625  0.19555  1.0000
  C   C24       1.0  0.53324  0.06794  0.31896  1.0000
  C   C25       1.0  0.84998  0.64973  0.26674  1.0000
  C   C26       1.0  0.34424  0.14550  0.34517  1.0000
  C   C27       1.0  0.15022  0.34889  0.28197  1.0000
  C   C28       1.0  0.65453  0.85313  0.33670  1.0000
  C   C29       1.0  0.85052  0.34901  0.24234  1.0000
  C   C30       1.0  0.34480  0.85552  0.35442  1.0000
  C   C31       1.0  0.15386  0.64976  0.25413  1.0000
  C   C32       1.0  0.65699  0.14652  0.34729  1.0000
  H   H1        1.0  0.91385  0.52927  0.11062  1.0000
  H   H2        1.0  0.41253  0.02953  0.24759  1.0000
  H   H3        1.0  0.09062  0.47001  0.15537  1.0000
  H   H4        1.0  0.59030  0.97286  0.25428  1.0000
  H   H5        1.0  0.91312  0.47194  0.11030  1.0000
  H   H6        1.0  0.41263  0.97227  0.24450  1.0000
  H   H7        1.0  0.09149  0.52711  0.14624  1.0000
  H   H8        1.0  0.58990  0.03001  0.25976  1.0000
  H   H9        1.0  0.83177  0.64522  0.37174  1.0000
  H   H10       1.0  0.32421  0.14034  0.44183  1.0000
  H   H11       1.0  0.16841  0.35407  0.38246  1.0000
  H   H12       1.0  0.67372  0.85857  0.43265  1.0000
  H   H13       1.0  0.83150  0.35295  0.34523  1.0000
  H   H14       1.0  0.32478  0.86126  0.45066  1.0000
  H   H15       1.0  0.17156  0.64602  0.35772  1.0000
  H   H16       1.0  0.67594  0.14164  0.44461  1.0000
  N   N1        1.0  0.84773  0.67412  0.17373  1.0000
  N   N2        1.0  0.34148  0.16860  0.24417  1.0000
  N   N3        1.0  0.15298  0.32435  0.18706  1.0000
  N   N4        1.0  0.65793  0.82915  0.23859  1.0000
  N   N5        1.0  0.84980  0.32429  0.14862  1.0000
  N   N6        1.0  0.34201  0.83163  0.25619  1.0000
  N   N7        1.0  0.15642  0.67374  0.15758  1.0000
  N   N8        1.0  0.66092  0.16946  0.24527  1.0000
  C   C33       1.0  0.00220  0.58178  0.20154  1.0000
  C   C34       1.0  0.99981  0.41801  0.20455  1.0000
  C   C35       1.0  0.50059  0.08323  0.32612  1.0000
  C   C36       1.0  0.50074  0.91894  0.31642  1.0000
  C   C37       1.0  0.00139  0.48303  0.17441  1.0000
  C   C38       1.0  0.00187  0.51661  0.17336  1.0000
  C   C39       1.0  0.50101  0.98425  0.29801  1.0000
  C   C40       1.0  0.50094  0.01783  0.30079  1.0000
  H   H17       1.0  0.00209  0.60689  0.22517  1.0000
  H   H18       1.0  0.99901  0.39300  0.22785  1.0000
  H   H19       1.0  0.50016  0.10849  0.34486  1.0000
  H   H20       1.0  0.50074  0.89375  0.33496  1.0000
  C   C41       1.0  0.17982  0.30223  0.20221  1.0000
  C   C42       1.0  0.17358  0.27225  0.13593  1.0000
  C   C43       1.0  0.19930  0.24929  0.14627  1.0000
  C   C44       1.0  0.23153  0.25680  0.21878  1.0000
  N   N9        1.0  0.23854  0.28583  0.27696  1.0000
  C   C45       1.0  0.21335  0.30756  0.26929  1.0000
  H   H21       1.0  0.14862  0.26786  0.07664  1.0000
  H   H22       1.0  0.19514  0.22606  0.09369  1.0000
  H   H23       1.0  0.22027  0.33077  0.31608  1.0000
  C   C46       1.0  0.68733  0.80962  0.24666  1.0000
  C   C47       1.0  0.68267  0.77779  0.20368  1.0000
  N   N10       1.0  0.70821  0.75638  0.20221  1.0000
  C   C48       1.0  0.74096  0.76584  0.24053  1.0000
  C   C49       1.0  0.74840  0.79705  0.28495  1.0000
  C   C50       1.0  0.72144  0.81914  0.28875  1.0000
  H   H24       1.0  0.65644  0.76994  0.16978  1.0000
  H   H25       1.0  0.77506  0.80365  0.31749  1.0000
  H   H26       1.0  0.72664  0.84349  0.32120  1.0000
  C   C51       1.0  0.82110  0.69651  0.19640  1.0000
  C   C52       1.0  0.82787  0.72667  0.13554  1.0000
  C   C53       1.0  0.80217  0.74969  0.15283  1.0000
  C   C54       1.0  0.76937  0.74207  0.22628  1.0000
  N   N11       1.0  0.76203  0.71292  0.28044  1.0000
  C   C55       1.0  0.78720  0.69118  0.26655  1.0000
  H   H27       1.0  0.85319  0.73123  0.07470  1.0000
  H   H28       1.0  0.80682  0.77303  0.10413  1.0000
  H   H29       1.0  0.77990  0.66789  0.30983  1.0000
  C   C56       1.0  0.31212  0.18829  0.24746  1.0000
  C   C57       1.0  0.31759  0.21920  0.19197  1.0000
  N   N12       1.0  0.29258  0.24104  0.18672  1.0000
  C   C58       1.0  0.25944  0.23268  0.23142  1.0000
  C   C59       1.0  0.25099  0.20221  0.28387  1.0000
  C   C60       1.0  0.27753  0.17989  0.29431  1.0000
  H   H30       1.0  0.34412  0.22586  0.15115  1.0000
  H   H31       1.0  0.22386  0.19640  0.31766  1.0000
  H   H32       1.0  0.27160  0.15626  0.33591  1.0000
  C   C61       1.0  0.18249  0.69652  0.17808  1.0000
  C   C62       1.0  0.17554  0.72680  0.12072  1.0000
  C   C63       1.0  0.20051  0.75023  0.14110  1.0000
  C   C64       1.0  0.23267  0.74295  0.21439  1.0000
  N   N13       1.0  0.24038  0.71361  0.26282  1.0000
  C   C65       1.0  0.21598  0.69142  0.24528  1.0000
  H   H33       1.0  0.15068  0.73115  0.06088  1.0000
  H   H34       1.0  0.19579  0.77375  0.09603  1.0000
  H   H35       1.0  0.22341  0.66795  0.28376  1.0000
  C   C66       1.0  0.69037  0.18896  0.24718  1.0000
  C   C67       1.0  0.68559  0.21989  0.19177  1.0000
  N   N14       1.0  0.71100  0.24130  0.18176  1.0000
  C   C68       1.0  0.74379  0.23279  0.22410  1.0000
  C   C69       1.0  0.75133  0.20252  0.28095  1.0000
  C   C70       1.0  0.72453  0.18038  0.29257  1.0000
  H   H36       1.0  0.65931  0.22693  0.15480  1.0000
  H   H37       1.0  0.77797  0.19659  0.31608  1.0000
  H   H38       1.0  0.72990  0.15669  0.33370  1.0000
  C   C71       1.0  0.82355  0.30178  0.16897  1.0000
  C   C72       1.0  0.83242  0.27025  0.13891  1.0000
  C   C73       1.0  0.80661  0.24747  0.15770  1.0000
  C   C74       1.0  0.77198  0.25646  0.20296  1.0000
  N   N15       1.0  0.76283  0.28681  0.22464  1.0000
  C   C75       1.0  0.78785  0.30850  0.20811  1.0000
  H   H39       1.0  0.85941  0.26445  0.10193  1.0000
  H   H40       1.0  0.81292  0.22293  0.13405  1.0000
  H   H41       1.0  0.77932  0.33284  0.22226  1.0000
  C   C76       1.0  0.31275  0.81189  0.25939  1.0000
  C   C77       1.0  0.31875  0.78034  0.21241  1.0000
  N   N16       1.0  0.29375  0.75859  0.20287  1.0000
  C   C78       1.0  0.26010  0.76729  0.23658  1.0000
  C   C79       1.0  0.25130  0.79816  0.28402  1.0000
  C   C80       1.0  0.27770  0.82067  0.29591  1.0000
  H   H42       1.0  0.34574  0.77317  0.18193  1.0000
  H   H43       1.0  0.22395  0.80429  0.31163  1.0000
  H   H44       1.0  0.27123  0.84480  0.32904  1.0000
  C   C81       1.0  0.96526  0.46638  0.67261  1.0000
  C   C82       1.0  0.46550  0.96618  0.79742  1.0000
  C   C83       1.0  0.03150  0.53288  0.67282  1.0000
  C   C84       1.0  0.53103  0.03328  0.80003  1.0000
  C   C85       1.0  0.96587  0.53341  0.67012  1.0000
  C   C86       1.0  0.46537  0.03334  0.80406  1.0000
  C   C87       1.0  0.03089  0.46587  0.68175  1.0000
  C   C88       1.0  0.53097  0.96646  0.79151  1.0000
  C   C89       1.0  0.93412  0.51607  0.64798  1.0000
  C   C90       1.0  0.43392  0.01573  0.77882  1.0000
  C   C91       1.0  0.06289  0.48303  0.65871  1.0000
  C   C92       1.0  0.56255  0.98391  0.76225  1.0000
  C   C93       1.0  0.93384  0.48403  0.64807  1.0000
  C   C94       1.0  0.43393  0.98371  0.77613  1.0000
  C   C95       1.0  0.06316  0.51501  0.65352  1.0000
  C   C96       1.0  0.56262  0.01588  0.76709  1.0000
  C   C97       1.0  0.96643  0.56665  0.68396  1.0000
  C   C98       1.0  0.46562  0.06651  0.82350  1.0000
  C   C99       1.0  0.03028  0.43281  0.70255  1.0000
  C   C100      1.0  0.53084  0.93338  0.80699  1.0000
  C   C101      1.0  0.96532  0.43327  0.68920  1.0000
  C   C102      1.0  0.46595  0.93298  0.80979  1.0000
  C   C103      1.0  0.03148  0.56612  0.68635  1.0000
  C   C104      1.0  0.53072  0.06634  0.82248  1.0000
  C   C105      1.0  0.84939  0.65241  0.76197  1.0000
  C   C106      1.0  0.34410  0.14807  0.84675  1.0000
  C   C107      1.0  0.14818  0.34877  0.78226  1.0000
  C   C108      1.0  0.65432  0.85553  0.83779  1.0000
  C   C109      1.0  0.84669  0.34918  0.73573  1.0000
  C   C110      1.0  0.34606  0.85008  0.84832  1.0000
  C   C111      1.0  0.15060  0.64875  0.75407  1.0000
  C   C112      1.0  0.65364  0.14586  0.84689  1.0000
  H   H45       1.0  0.90977  0.52886  0.63040  1.0000
  H   H46       1.0  0.40948  0.02829  0.76040  1.0000
  H   H47       1.0  0.08744  0.47011  0.64350  1.0000
  H   H48       1.0  0.58687  0.97132  0.73430  1.0000
  H   H49       1.0  0.90922  0.47162  0.62970  1.0000
  H   H50       1.0  0.40950  0.97115  0.75587  1.0000
  H   H51       1.0  0.08792  0.52731  0.63293  1.0000
  H   H52       1.0  0.58704  0.02852  0.74372  1.0000
  H   H53       1.0  0.83168  0.64924  0.87032  1.0000
  H   H54       1.0  0.32457  0.14440  0.94748  1.0000
  H   H55       1.0  0.16598  0.35319  0.88530  1.0000
  H   H56       1.0  0.67352  0.86163  0.93270  1.0000
  H   H57       1.0  0.82768  0.35324  0.83863  1.0000
  H   H58       1.0  0.32699  0.85405  0.95106  1.0000
  H   H59       1.0  0.16780  0.64476  0.85931  1.0000
  H   H60       1.0  0.67349  0.14014  0.93886  1.0000
  N   N17       1.0  0.84683  0.67589  0.66292  1.0000
  N   N18       1.0  0.34143  0.17022  0.73985  1.0000
  N   N19       1.0  0.15144  0.32473  0.68419  1.0000
  N   N20       1.0  0.65766  0.83145  0.74027  1.0000
  N   N21       1.0  0.84506  0.32487  0.63942  1.0000
  N   N22       1.0  0.34302  0.82717  0.74395  1.0000
  N   N23       1.0  0.15433  0.67250  0.65705  1.0000
  N   N24       1.0  0.65618  0.16960  0.74890  1.0000
  C   C113      1.0  0.99905  0.58173  0.69279  1.0000
  C   C114      1.0  0.99748  0.41780  0.70645  1.0000
  C   C115      1.0  0.49816  0.08167  0.83600  1.0000
  C   C116      1.0  0.49850  0.91780  0.81800  1.0000
  C   C117      1.0  0.99822  0.48283  0.67548  1.0000
  C   C118      1.0  0.99852  0.51642  0.67248  1.0000
  C   C119      1.0  0.49817  0.98308  0.79727  1.0000
  C   C120      1.0  0.49818  0.01663  0.80114  1.0000
  H   H61       1.0  0.99916  0.60697  0.71190  1.0000
  H   H62       1.0  0.99681  0.39278  0.72987  1.0000
  H   H63       1.0  0.49824  0.10675  0.86052  1.0000
  H   H64       1.0  0.49863  0.89265  0.83785  1.0000
  C   C121      1.0  0.17901  0.30335  0.69598  1.0000
  C   C122      1.0  0.17228  0.27197  0.65273  1.0000
  C   C123      1.0  0.19917  0.25013  0.66195  1.0000
  C   C124      1.0  0.23286  0.25987  0.71014  1.0000
  N   N25       1.0  0.24030  0.29021  0.74105  1.0000
  C   C125      1.0  0.21413  0.31107  0.73414  1.0000
  H   H65       1.0  0.14610  0.26550  0.61261  1.0000
  H   H66       1.0  0.19473  0.22576  0.62801  1.0000
  H   H67       1.0  0.22126  0.33556  0.75502  1.0000
  C   C126      1.0  0.68652  0.81122  0.74749  1.0000
  C   C127      1.0  0.68262  0.78150  0.67202  1.0000
  N   N26       1.0  0.70744  0.75936  0.66538  1.0000
  C   C128      1.0  0.73875  0.76616  0.73234  1.0000
  C   C129      1.0  0.74531  0.79504  0.81116  1.0000
  C   C130      1.0  0.71906  0.81770  0.81984  1.0000
  H   H68       1.0  0.65759  0.77605  0.61478  1.0000
  H   H69       1.0  0.77076  0.79924  0.86634  1.0000
  H   H70       1.0  0.72385  0.84005  0.88110  1.0000
  C   C131      1.0  0.81998  0.69804  0.68328  1.0000
  C   C132      1.0  0.82731  0.72916  0.63933  1.0000
  C   C133      1.0  0.80101  0.75156  0.65871  1.0000
  C   C134      1.0  0.76717  0.74241  0.71407  1.0000
  N   N27       1.0  0.75922  0.71232  0.74758  1.0000
  C   C135      1.0  0.78499  0.69109  0.73380  1.0000
  H   H71       1.0  0.85338  0.73494  0.58983  1.0000
  H   H72       1.0  0.80604  0.77584  0.62615  1.0000
  H   H73       1.0  0.77761  0.66684  0.75869  1.0000
  C   C136      1.0  0.31266  0.19069  0.74347  1.0000
  C   C137      1.0  0.31811  0.22047  0.67297  1.0000
  N   N28       1.0  0.29364  0.24283  0.66635  1.0000
  C   C138      1.0  0.26105  0.23612  0.72625  1.0000
  C   C139      1.0  0.25275  0.20692  0.79655  1.0000
  C   C140      1.0  0.27863  0.18407  0.80631  1.0000
  H   H74       1.0  0.34415  0.22589  0.62062  1.0000
  H   H75       1.0  0.22616  0.20257  0.84436  1.0000
  H   H76       1.0  0.27258  0.16138  0.86028  1.0000
  C   C141      1.0  0.18133  0.69429  0.67788  1.0000
  C   C142      1.0  0.17508  0.72509  0.62660  1.0000
  C   C143      1.0  0.20117  0.74752  0.64535  1.0000
  C   C144      1.0  0.23353  0.73876  0.71228  1.0000
  N   N29       1.0  0.24060  0.70891  0.75343  1.0000
  C   C145      1.0  0.21522  0.68755  0.73650  1.0000
  H   H77       1.0  0.14987  0.73045  0.57231  1.0000
  H   H78       1.0  0.19721  0.77140  0.60375  1.0000
  H   H79       1.0  0.22223  0.66350  0.76667  1.0000
  C   C146      1.0  0.68518  0.18983  0.74822  1.0000
  C   C147      1.0  0.68112  0.21829  0.66344  1.0000
  N   N30       1.0  0.70592  0.24032  0.64807  1.0000
  C   C148      1.0  0.73744  0.23469  0.71530  1.0000
  C   C149      1.0  0.74428  0.20698  0.80196  1.0000
  C   C150      1.0  0.71805  0.18450  0.81976  1.0000
  H   H80       1.0  0.65592  0.22274  0.60578  1.0000
  H   H81       1.0  0.76977  0.20376  0.85812  1.0000
  H   H82       1.0  0.72303  0.16327  0.88884  1.0000
  C   C151      1.0  0.81810  0.30292  0.65873  1.0000
  C   C152      1.0  0.82644  0.27121  0.63134  1.0000
  C   C153      1.0  0.80014  0.24887  0.64996  1.0000
  C   C154      1.0  0.76560  0.25847  0.69186  1.0000
  N   N31       1.0  0.75691  0.28896  0.71005  1.0000
  C   C155      1.0  0.78244  0.31031  0.69449  1.0000
  H   H83       1.0  0.85342  0.26493  0.59698  1.0000
  H   H84       1.0  0.80581  0.22420  0.62787  1.0000
  H   H85       1.0  0.77437  0.33480  0.70659  1.0000
  C   C156      1.0  0.31412  0.80698  0.75129  1.0000
  C   C157      1.0  0.31974  0.77591  0.69548  1.0000
  N   N32       1.0  0.29474  0.75408  0.68842  1.0000
  C   C158      1.0  0.26159  0.76245  0.73405  1.0000
  C   C159      1.0  0.25327  0.79272  0.79307  1.0000
  C   C160      1.0  0.27965  0.81522  0.80221  1.0000
  H   H86       1.0  0.34635  0.76906  0.65616  1.0000
  H   H87       1.0  0.22636  0.79826  0.83266  1.0000
  H   H88       1.0  0.27362  0.83890  0.84537  1.0000
  C   C161      1.0  0.93280  0.62338  0.11194  1.0000
  C   C162      1.0  0.93894  0.59460  0.18691  1.0000
  C  Sn1       1.0  0.91307  0.58112  0.28948  1.0000
  C  Sn2       1.0  0.88046  0.59680  0.31724  1.0000
  C   C163      1.0  0.87456  0.62557  0.24157  1.0000
  C   C164      1.0  0.90064  0.63885  0.13920  1.0000
  H   H89       1.0  0.95296  0.63365  0.03267  1.0000
  O  Te1       1.0  0.91964  0.55236  0.36345  1.0000
  O  Te2       1.0  0.85414  0.58385  0.41913  1.0000
  H   H90       1.0  0.89587  0.66112  0.08109  1.0000
  Mg  Mg1       1.0  0.87557  0.54420  0.49217  1.0000
  C   C165      1.0  0.39710  0.07979  0.43826  1.0000
  C   C166      1.0  0.42783  0.08295  0.34102  1.0000
  C  Sn3       1.0  0.43270  0.10921  0.24128  1.0000
  C  Sn4       1.0  0.40629  0.13271  0.23915  1.0000
  C   C167      1.0  0.37565  0.12934  0.33696  1.0000
  C   C168      1.0  0.37104  0.10296  0.43627  1.0000
  H   H91       1.0  0.39353  0.05939  0.51517  1.0000
  O  Te3       1.0  0.46356  0.11200  0.14485  1.0000
  O  Te4       1.0  0.41049  0.15920  0.14065  1.0000
  H   H92       1.0  0.34725  0.10052  0.51163  1.0000
  Mg  Mg2       1.0  0.45712  0.15238  0.03094  1.0000
  C   C169      1.0  0.06928  0.37562  0.12920  1.0000
  C   C170      1.0  0.06246  0.40439  0.20741  1.0000
  C  Sn5       1.0  0.08698  0.41741  0.31440  1.0000
  C  Sn6       1.0  0.11888  0.40126  0.34334  1.0000
  C   C171      1.0  0.12546  0.37250  0.26441  1.0000
  C   C172      1.0  0.10074  0.35968  0.15763  1.0000
  H   H93       1.0  0.05017  0.36571  0.04651  1.0000
  O  Te5       1.0  0.07975  0.44618  0.39157  1.0000
  O  Te6       1.0  0.14384  0.41374  0.44963  1.0000
  H   H94       1.0  0.10603  0.33741  0.09702  1.0000
  Mg  Mg3       1.0  0.12196  0.45361  0.52583  1.0000
  C   C173      1.0  0.62000  0.91074  0.42281  1.0000
  C   C174      1.0  0.62455  0.88071  0.35535  1.0000
  C  Sn7       1.0  0.59873  0.86760  0.25570  1.0000
  C  Sn8       1.0  0.56781  0.88494  0.22315  1.0000
  C   C175      1.0  0.56352  0.91497  0.29112  1.0000
  C   C176      1.0  0.58952  0.92786  0.39072  1.0000
  H   H95       1.0  0.64012  0.92072  0.49979  1.0000
  O  Te7       1.0  0.60369  0.83756  0.18934  1.0000
  O  Te8       1.0  0.54160  0.87240  0.12392  1.0000
  H   H96       1.0  0.58600  0.95112  0.44284  1.0000
  Mg  Mg4       1.0  0.56045  0.83057  0.06171  1.0000
  C   C177      1.0  0.88180  0.40852  0.31726  1.0000
  C   C178      1.0  0.87640  0.38012  0.23432  1.0000
  C  Sn9       1.0  0.90250  0.36790  0.12722  1.0000
  C  Sn10      1.0  0.93459  0.38448  0.10298  1.0000
  C   C179      1.0  0.93975  0.41286  0.18663  1.0000
  C   C180      1.0  0.91345  0.42488  0.29348  1.0000
  H   H97       1.0  0.86147  0.41781  0.40001  1.0000
  O  Te9       1.0  0.89666  0.33950  0.04529  1.0000
  O  Te10      1.0  0.95589  0.37466  0.99669  1.0000
  H   H98       1.0  0.91766  0.44686  0.35776  1.0000
  Mg  Mg5       1.0  0.93552  0.33504  0.91303  1.0000
  C   C181      1.0  0.43107  0.87789  0.22932  1.0000
  C   C182      1.0  0.43588  0.90819  0.29165  1.0000
  C  Sn11      1.0  0.40984  0.92222  0.39260  1.0000
  C  Sn12      1.0  0.37844  0.90553  0.43170  1.0000
  C   C183      1.0  0.37390  0.87522  0.36882  1.0000
  C   C184      1.0  0.40012  0.86141  0.26787  1.0000
  H   H99       1.0  0.45137  0.86719  0.15128  1.0000
  O  Te11      1.0  0.41506  0.95252  0.45378  1.0000
  O  Te12      1.0  0.35200  0.91899  0.53237  1.0000
  H   H100      1.0  0.39640  0.83794  0.21972  1.0000
  Mg  Mg6       1.0  0.37135  0.96084  0.58584  1.0000
  C   C185      1.0  0.10569  0.57890  0.31413  1.0000
  C   C186      1.0  0.07358  0.58363  0.23715  1.0000
  C  Sn13      1.0  0.06796  0.61079  0.14644  1.0000
  C  Sn14      1.0  0.09505  0.63359  0.13274  1.0000
  C   C187      1.0  0.12709  0.62863  0.21012  1.0000
  C   C188      1.0  0.13243  0.60138  0.30063  1.0000
  H   H101      1.0  0.10983  0.55781  0.38409  1.0000
  O  Te13      1.0  0.03572  0.61514  0.07036  1.0000
  O  Te14      1.0  0.09014  0.66094  0.04279  1.0000
  H   H102      1.0  0.15730  0.59771  0.36013  1.0000
  Mg  Mg7       1.0  0.03639  0.65809  0.96141  1.0000
  C   C189      1.0  0.58792  0.13339  0.22945  1.0000
  C   C190      1.0  0.61787  0.13029  0.32515  1.0000
  C  Sn15      1.0  0.62232  0.10375  0.42219  1.0000
  C  Sn16      1.0  0.59628  0.07991  0.42315  1.0000
  C   C191      1.0  0.56642  0.08322  0.32688  1.0000
  C   C192      1.0  0.56222  0.10988  0.23027  1.0000
  H   H103      1.0  0.58467  0.15400  0.15462  1.0000
  O  Te15      1.0  0.65239  0.10103  0.51712  1.0000
  O  Te16      1.0  0.60008  0.05313  0.51895  1.0000
  H   H104      1.0  0.53904  0.11226  0.15610  1.0000
  Mg  Mg8       1.0  0.64565  0.06018  0.62744  1.0000
  C   C193      1.0  0.88096  0.59260  0.82678  1.0000
  C   C194      1.0  0.87746  0.62288  0.76525  1.0000
  C  Sn17      1.0  0.90309  0.63506  0.65680  1.0000
  C  Sn18      1.0  0.93274  0.61652  0.60928  1.0000
  C   C195      1.0  0.93598  0.58624  0.67144  1.0000
  C   C196      1.0  0.91018  0.57429  0.77992  1.0000
  H   H105      1.0  0.86099  0.58334  0.91065  1.0000
  O  Te17      1.0  0.89919  0.66537  0.59653  1.0000
  O  Te18      1.0  0.95874  0.62811  0.50102  1.0000
  H   H106      1.0  0.91289  0.55083  0.82746  1.0000
  Mg  Mg9       1.0  0.94164  0.67076  0.45217  1.0000
  C   C197      1.0  0.39330  0.07974  0.93360  1.0000
  C   C198      1.0  0.42530  0.08287  0.84612  1.0000
  C  Sn19      1.0  0.43246  0.10995  0.75561  1.0000
  C  Sn20      1.0  0.40705  0.13430  0.75291  1.0000
  C   C199      1.0  0.37512  0.13095  0.84093  1.0000
  C   C200      1.0  0.36823  0.10376  0.93105  1.0000
  H   H107      1.0  0.39320  0.05684  0.00340  1.0000
  O  Te19      1.0  0.46456  0.11269  0.66886  1.0000
  O  Te20      1.0  0.41353  0.16161  0.66352  1.0000
  H   H108      1.0  0.34346  0.10135  0.99886  1.0000
  Mg  Mg10      1.0  0.46116  0.15438  0.56515  1.0000
  C   C201      1.0  0.08079  0.36350  0.65171  1.0000
  C   C202      1.0  0.11254  0.36843  0.73201  1.0000
  C  Sn21      1.0  0.11847  0.39651  0.81709  1.0000
  C  Sn22      1.0  0.09206  0.42004  0.82168  1.0000
  C   C203      1.0  0.06038  0.41488  0.74106  1.0000
  C   C204      1.0  0.05473  0.38670  0.65624  1.0000
  H   H109      1.0  0.07641  0.34170  0.58616  1.0000
  O  Te21      1.0  0.15034  0.40105  0.89658  1.0000
  O  Te22      1.0  0.09729  0.44832  0.90586  1.0000
  H   H110      1.0  0.03014  0.38289  0.59417  1.0000
  Mg  Mg11      1.0  0.14509  0.44351  0.99504  1.0000
  C   C205      1.0  0.61814  0.91266  0.92104  1.0000
  C   C206      1.0  0.62368  0.88258  0.85589  1.0000
  C  Sn23      1.0  0.59814  0.86839  0.75866  1.0000
  C  Sn24      1.0  0.56651  0.88468  0.72623  1.0000
  C   C207      1.0  0.56123  0.91478  0.79188  1.0000
  C   C208      1.0  0.58696  0.92876  0.88906  1.0000
  H   H111      1.0  0.63805  0.92349  0.99616  1.0000
  O  Te23      1.0  0.60409  0.83831  0.69459  1.0000
  O  Te24      1.0  0.54055  0.87105  0.62940  1.0000
  H   H112      1.0  0.58268  0.95206  0.93940  1.0000
  Mg  Mg12      1.0  0.56084  0.82962  0.56976  1.0000
  C   C209      1.0  0.91383  0.36649  0.59556  1.0000
  C   C210      1.0  0.88379  0.36824  0.69872  1.0000
  C  Sn25      1.0  0.87770  0.39468  0.79856  1.0000
  C  Sn26      1.0  0.90219  0.41980  0.79475  1.0000
  C   C211      1.0  0.93215  0.41782  0.69104  1.0000
  C   C212      1.0  0.93799  0.39125  0.59168  1.0000
  H   H113      1.0  0.91834  0.34594  0.51862  1.0000
  O  Te25      1.0  0.84756  0.39605  0.90095  1.0000
  O  Te26      1.0  0.89675  0.44650  0.89321  1.0000
  H   H114      1.0  0.96124  0.38990  0.51174  1.0000
  Mg  Mg13      1.0  0.85699  0.43551  0.01228  1.0000
  C   C213      1.0  0.37985  0.90737  0.94031  1.0000
  C   C214      1.0  0.37403  0.87956  0.85263  1.0000
  C  Sn27      1.0  0.40017  0.86741  0.74554  1.0000
  C  Sn28      1.0  0.43273  0.88345  0.72615  1.0000
  C   C215      1.0  0.43831  0.91125  0.81450  1.0000
  C   C216      1.0  0.41196  0.92321  0.92130  1.0000
  H   H115      1.0  0.36471  0.91475  0.02301  1.0000
  O  Te27      1.0  0.39391  0.83959  0.65884  1.0000
  O  Te28      1.0  0.45931  0.87182  0.61997  1.0000
  H   H116      1.0  0.41649  0.94474  0.98925  1.0000
  Mg  Mg14      1.0  0.43826  0.83310  0.52878  1.0000
  C   C217      1.0  0.10151  0.57876  0.81124  1.0000
  C   C218      1.0  0.06998  0.58338  0.72912  1.0000
  C  Sn29      1.0  0.06504  0.61039  0.63631  1.0000
  C  Sn30      1.0  0.09222  0.63315  0.62571  1.0000
  C   C219      1.0  0.12367  0.62830  0.70823  1.0000
  C   C220      1.0  0.12833  0.60120  0.80080  1.0000
  H   H117      1.0  0.10513  0.55778  0.88280  1.0000
  O  Te29      1.0  0.03337  0.61463  0.55509  1.0000
  O  Te30      1.0  0.08798  0.66035  0.53376  1.0000
  H   H118      1.0  0.15276  0.59762  0.86429  1.0000
  Mg  Mg15      1.0  0.04009  0.65553  0.44515  1.0000
  C   C221      1.0  0.61810  0.08884  0.93453  1.0000
  C   C222      1.0  0.62453  0.11712  0.85361  1.0000
  C  Sn31      1.0  0.59813  0.13110  0.76218  1.0000
  C  Sn32      1.0  0.56469  0.11644  0.75183  1.0000
  C   C223      1.0  0.55851  0.08816  0.83333  1.0000
  C   C224      1.0  0.58513  0.07437  0.92444  1.0000
  H   H119      1.0  0.64392  0.07631  0.00510  1.0000
  O  Te31      1.0  0.60500  0.15935  0.68204  1.0000
  O  Te32      1.0  0.53782  0.12991  0.66134  1.0000
  H   H120      1.0  0.58013  0.05249  0.98716  1.0000
  Mg  Mg16      1.0  0.55995  0.16854  0.57382  1.0000
