data_image0
_chemical_formula_structural       C56H32N8C8H4C4NCH3C2NC3H3C4NCH3C2NC3H3C4NCH3C2NC3H3C4NCH3C2NC3H3C56H32N8C8H4C4NCH3C2NC3H3C4NCH3C2NC3H3C4NCH3C2NC3H3C4NCH3C2NC3H3C2Sn2C2HTe2HMgC2Sn2C2HTe2HMgC2Sn2C2HTe2HMgC2Sn2C2HTe2HMgC2Sn2C2HTe2HMgC2Sn2C2HTe2HMgC2Sn2C2HTe2HMgC2Sn2C2HTe2HMg
_chemical_formula_sum              "C240 H136 N32 Sn16 Te16 Mg8"
_cell_length_a       37.9516
_cell_length_b       42.6969
_cell_length_c       8.08325
_cell_angle_alpha    90.5651
_cell_angle_beta     88.5915
_cell_angle_gamma    90.0067

_symmetry_space_group_name_H-M    'P1'
_space_group_IT_number       1

loop_
  _space_group_symop_operation_xyz
  'x, y, z'

loop_
  _atom_site_type_symbol
  _atom_site_label
  _atom_site_symmetry_multiplicity
  _atom_site_fract_x
  _atom_site_fract_y
  _atom_site_fract_z
  _atom_site_occupancy
  C   C1        1.0  0.96838  0.46676  0.16747  1.0000
  C   C2        1.0  0.46824  0.96751  0.29452  1.0000
  C   C3        1.0  0.03485  0.53302  0.17936  1.0000
  C   C4        1.0  0.53363  0.03470  0.30289  1.0000
  C   C5        1.0  0.96931  0.53360  0.16676  1.0000
  C   C6        1.0  0.46817  0.03445  0.29905  1.0000
  C   C7        1.0  0.03383  0.46589  0.18411  1.0000
  C   C8        1.0  0.53381  0.96753  0.29662  1.0000
  C   C9        1.0  0.93784  0.51643  0.13528  1.0000
  C   C10       1.0  0.43678  0.01696  0.27036  1.0000
  C   C11       1.0  0.06603  0.48298  0.16666  1.0000
  C   C12       1.0  0.56555  0.98521  0.27518  1.0000
  C   C13       1.0  0.93740  0.48442  0.13528  1.0000
  C   C14       1.0  0.43683  0.98497  0.26814  1.0000
  C   C15       1.0  0.06650  0.51499  0.16277  1.0000
  C   C16       1.0  0.56540  0.01723  0.27811  1.0000
  C   C17       1.0  0.96965  0.56673  0.18685  1.0000
  C   C18       1.0  0.46829  0.06761  0.31555  1.0000
  C   C19       1.0  0.03269  0.43281  0.20242  1.0000
  C   C20       1.0  0.53333  0.93429  0.30814  1.0000
  C   C21       1.0  0.96788  0.43374  0.18594  1.0000
  C   C22       1.0  0.46831  0.93433  0.30847  1.0000
  C   C23       1.0  0.03476  0.56625  0.19555  1.0000
  C   C24       1.0  0.53324  0.06794  0.31896  1.0000
  C   C25       1.0  0.43575  0.08650  0.32225  1.0000
  C   C26       1.0  0.06395  0.41270  0.22151  1.0000
  C   C27       1.0  0.56532  0.91469  0.31404  1.0000
  C   C28       1.0  0.06686  0.58571  0.20791  1.0000
  C   C29       1.0  0.40589  0.07802  0.41829  1.0000
  C   C30       1.0  0.09254  0.42087  0.32077  1.0000
  C   C31       1.0  0.59501  0.92288  0.40597  1.0000
  C   C32       1.0  0.09644  0.57764  0.30048  1.0000
  C   C33       1.0  0.37612  0.09713  0.42578  1.0000
  C   C34       1.0  0.12057  0.40023  0.34101  1.0000
  C   C35       1.0  0.62394  0.90288  0.41295  1.0000
  C   C36       1.0  0.12496  0.59809  0.31440  1.0000
  C   C37       1.0  0.37526  0.12529  0.33725  1.0000
  C   C38       1.0  0.12113  0.37081  0.26094  1.0000
  C   C39       1.0  0.62428  0.87402  0.32767  1.0000
  C   C40       1.0  0.12517  0.62722  0.23442  1.0000
  C   C41       1.0  0.40516  0.13391  0.24156  1.0000
  C   C42       1.0  0.09251  0.36253  0.16181  1.0000
  C   C43       1.0  0.59465  0.86567  0.23565  1.0000
  C   C44       1.0  0.09584  0.63518  0.14030  1.0000
  C   C45       1.0  0.43474  0.11490  0.23477  1.0000
  C   C46       1.0  0.06465  0.38299  0.14265  1.0000
  C   C47       1.0  0.56591  0.88558  0.22944  1.0000
  C   C48       1.0  0.06749  0.61497  0.12774  1.0000
  C   C49       1.0  0.84998  0.64973  0.26674  1.0000
  C   C50       1.0  0.34424  0.14550  0.34517  1.0000
  C   C51       1.0  0.15022  0.34889  0.28197  1.0000
  C   C52       1.0  0.65453  0.85313  0.33670  1.0000
  C   C53       1.0  0.85052  0.34901  0.24234  1.0000
  C   C54       1.0  0.34480  0.85552  0.35442  1.0000
  C   C55       1.0  0.15386  0.64976  0.25413  1.0000
  C   C56       1.0  0.65699  0.14652  0.34729  1.0000
  H   H1        1.0  0.91385  0.52927  0.11062  1.0000
  H   H2        1.0  0.41253  0.02953  0.24759  1.0000
  H   H3        1.0  0.09062  0.47001  0.15537  1.0000
  H   H4        1.0  0.59030  0.97286  0.25428  1.0000
  H   H5        1.0  0.91312  0.47194  0.11030  1.0000
  H   H6        1.0  0.41263  0.97227  0.24450  1.0000
  H   H7        1.0  0.09149  0.52711  0.14624  1.0000
  H   H8        1.0  0.58990  0.03001  0.25976  1.0000
  H   H9        1.0  0.40673  0.05696  0.49259  1.0000
  H   H10       1.0  0.09188  0.44302  0.38841  1.0000
  H   H11       1.0  0.59465  0.94445  0.47848  1.0000
  H   H12       1.0  0.09621  0.55598  0.37014  1.0000
  H   H13       1.0  0.35358  0.09055  0.50384  1.0000
  H   H14       1.0  0.14199  0.40675  0.42167  1.0000
  H   H15       1.0  0.64623  0.90924  0.48852  1.0000
  H   H16       1.0  0.14686  0.59175  0.39192  1.0000
  H   H17       1.0  0.40425  0.15563  0.17273  1.0000
  H   H18       1.0  0.09326  0.33999  0.09791  1.0000
  H   H19       1.0  0.59503  0.84349  0.16835  1.0000
  H   H20       1.0  0.09628  0.65746  0.07631  1.0000
  H   H21       1.0  0.45733  0.12140  0.15702  1.0000
  H   H22       1.0  0.04335  0.37659  0.06119  1.0000
  H   H23       1.0  0.54365  0.87912  0.15407  1.0000
  H   H24       1.0  0.04554  0.62124  0.05063  1.0000
  H   H25       1.0  0.83177  0.64522  0.37174  1.0000
  H   H26       1.0  0.32421  0.14034  0.44183  1.0000
  H   H27       1.0  0.16841  0.35407  0.38246  1.0000
  H   H28       1.0  0.67372  0.85857  0.43265  1.0000
  H   H29       1.0  0.83150  0.35295  0.34523  1.0000
  H   H30       1.0  0.32478  0.86126  0.45066  1.0000
  H   H31       1.0  0.17156  0.64602  0.35772  1.0000
  H   H32       1.0  0.67594  0.14164  0.44461  1.0000
  N   N1        1.0  0.84773  0.67412  0.17373  1.0000
  N   N2        1.0  0.34148  0.16860  0.24417  1.0000
  N   N3        1.0  0.15298  0.32435  0.18706  1.0000
  N   N4        1.0  0.65793  0.82915  0.23859  1.0000
  N   N5        1.0  0.84980  0.32429  0.14862  1.0000
  N   N6        1.0  0.34201  0.83163  0.25619  1.0000
  N   N7        1.0  0.15642  0.67374  0.15758  1.0000
  N   N8        1.0  0.66092  0.16946  0.24527  1.0000
  C   C57       1.0  0.00220  0.58178  0.20154  1.0000
  C   C58       1.0  0.99981  0.41801  0.20455  1.0000
  C   C59       1.0  0.50059  0.08323  0.32612  1.0000
  C   C60       1.0  0.50074  0.91894  0.31642  1.0000
  C   C61       1.0  0.00139  0.48303  0.17441  1.0000
  C   C62       1.0  0.00187  0.51661  0.17336  1.0000
  C   C63       1.0  0.50101  0.98425  0.29801  1.0000
  C   C64       1.0  0.50094  0.01783  0.30079  1.0000
  H   H33       1.0  0.00209  0.60689  0.22517  1.0000
  H   H34       1.0  0.99901  0.39300  0.22785  1.0000
  H   H35       1.0  0.50016  0.10849  0.34486  1.0000
  H   H36       1.0  0.50074  0.89375  0.33496  1.0000
  C   C65       1.0  0.17982  0.30223  0.20221  1.0000
  C   C66       1.0  0.17358  0.27225  0.13593  1.0000
  C   C67       1.0  0.19930  0.24929  0.14627  1.0000
  C   C68       1.0  0.23153  0.25680  0.21878  1.0000
  N   N9        1.0  0.23854  0.28583  0.27696  1.0000
  C   C69       1.0  0.21335  0.30756  0.26929  1.0000
  H   H37       1.0  0.14862  0.26786  0.07664  1.0000
  H   H38       1.0  0.19514  0.22606  0.09369  1.0000
  H   H39       1.0  0.22027  0.33077  0.31608  1.0000
  C   C70       1.0  0.68733  0.80962  0.24666  1.0000
  C   C71       1.0  0.68267  0.77779  0.20368  1.0000
  N   N10       1.0  0.70821  0.75638  0.20221  1.0000
  C   C72       1.0  0.74096  0.76584  0.24053  1.0000
  C   C73       1.0  0.74840  0.79705  0.28495  1.0000
  C   C74       1.0  0.72144  0.81914  0.28875  1.0000
  H   H40       1.0  0.65644  0.76994  0.16978  1.0000
  H   H41       1.0  0.77506  0.80365  0.31749  1.0000
  H   H42       1.0  0.72664  0.84349  0.32120  1.0000
  C   C75       1.0  0.82110  0.69651  0.19640  1.0000
  C   C76       1.0  0.82787  0.72667  0.13554  1.0000
  C   C77       1.0  0.80217  0.74969  0.15283  1.0000
  C   C78       1.0  0.76937  0.74207  0.22628  1.0000
  N   N11       1.0  0.76203  0.71292  0.28044  1.0000
  C   C79       1.0  0.78720  0.69118  0.26655  1.0000
  H   H43       1.0  0.85319  0.73123  0.07470  1.0000
  H   H44       1.0  0.80682  0.77303  0.10413  1.0000
  H   H45       1.0  0.77990  0.66789  0.30983  1.0000
  C   C80       1.0  0.31212  0.18829  0.24746  1.0000
  C   C81       1.0  0.31759  0.21920  0.19197  1.0000
  N   N12       1.0  0.29258  0.24104  0.18672  1.0000
  C   C82       1.0  0.25944  0.23268  0.23142  1.0000
  C   C83       1.0  0.25099  0.20221  0.28387  1.0000
  C   C84       1.0  0.27753  0.17989  0.29431  1.0000
  H   H46       1.0  0.34412  0.22586  0.15115  1.0000
  H   H47       1.0  0.22386  0.19640  0.31766  1.0000
  H   H48       1.0  0.27160  0.15626  0.33591  1.0000
  C   C85       1.0  0.18249  0.69652  0.17808  1.0000
  C   C86       1.0  0.17554  0.72680  0.12072  1.0000
  C   C87       1.0  0.20051  0.75023  0.14110  1.0000
  C   C88       1.0  0.23267  0.74295  0.21439  1.0000
  N   N13       1.0  0.24038  0.71361  0.26282  1.0000
  C   C89       1.0  0.21598  0.69142  0.24528  1.0000
  H   H49       1.0  0.15068  0.73115  0.06088  1.0000
  H   H50       1.0  0.19579  0.77375  0.09603  1.0000
  H   H51       1.0  0.22341  0.66795  0.28376  1.0000
  C   C90       1.0  0.69037  0.18896  0.24718  1.0000
  C   C91       1.0  0.68559  0.21989  0.19177  1.0000
  N   N14       1.0  0.71100  0.24130  0.18176  1.0000
  C   C92       1.0  0.74379  0.23279  0.22410  1.0000
  C   C93       1.0  0.75133  0.20252  0.28095  1.0000
  C   C94       1.0  0.72453  0.18038  0.29257  1.0000
  H   H52       1.0  0.65931  0.22693  0.15480  1.0000
  H   H53       1.0  0.77797  0.19659  0.31608  1.0000
  H   H54       1.0  0.72990  0.15669  0.33370  1.0000
  C   C95       1.0  0.82355  0.30178  0.16897  1.0000
  C   C96       1.0  0.83242  0.27025  0.13891  1.0000
  C   C97       1.0  0.80661  0.24747  0.15770  1.0000
  C   C98       1.0  0.77198  0.25646  0.20296  1.0000
  N   N15       1.0  0.76283  0.28681  0.22464  1.0000
  C   C99       1.0  0.78785  0.30850  0.20811  1.0000
  H   H55       1.0  0.85941  0.26445  0.10193  1.0000
  H   H56       1.0  0.81292  0.22293  0.13405  1.0000
  H   H57       1.0  0.77932  0.33284  0.22226  1.0000
  C   C100      1.0  0.31275  0.81189  0.25939  1.0000
  C   C101      1.0  0.31875  0.78034  0.21241  1.0000
  N   N16       1.0  0.29375  0.75859  0.20287  1.0000
  C   C102      1.0  0.26010  0.76729  0.23658  1.0000
  C   C103      1.0  0.25130  0.79816  0.28402  1.0000
  C   C104      1.0  0.27770  0.82067  0.29591  1.0000
  H   H58       1.0  0.34574  0.77317  0.18193  1.0000
  H   H59       1.0  0.22395  0.80429  0.31163  1.0000
  H   H60       1.0  0.27123  0.84480  0.32904  1.0000
  C   C105      1.0  0.96526  0.46638  0.67261  1.0000
  C   C106      1.0  0.46550  0.96618  0.79742  1.0000
  C   C107      1.0  0.03150  0.53288  0.67282  1.0000
  C   C108      1.0  0.53103  0.03328  0.80003  1.0000
  C   C109      1.0  0.96587  0.53341  0.67012  1.0000
  C   C110      1.0  0.46537  0.03334  0.80406  1.0000
  C   C111      1.0  0.03089  0.46587  0.68175  1.0000
  C   C112      1.0  0.53097  0.96646  0.79151  1.0000
  C   C113      1.0  0.93412  0.51607  0.64798  1.0000
  C   C114      1.0  0.43392  0.01573  0.77882  1.0000
  C   C115      1.0  0.06289  0.48303  0.65871  1.0000
  C   C116      1.0  0.56255  0.98391  0.76225  1.0000
  C   C117      1.0  0.93384  0.48403  0.64807  1.0000
  C   C118      1.0  0.43393  0.98371  0.77613  1.0000
  C   C119      1.0  0.06316  0.51501  0.65352  1.0000
  C   C120      1.0  0.56262  0.01588  0.76709  1.0000
  C   C121      1.0  0.96643  0.56665  0.68396  1.0000
  C   C122      1.0  0.46562  0.06651  0.82350  1.0000
  C   C123      1.0  0.03028  0.43281  0.70255  1.0000
  C   C124      1.0  0.53084  0.93338  0.80699  1.0000
  C   C125      1.0  0.96532  0.43327  0.68920  1.0000
  C   C126      1.0  0.46595  0.93298  0.80979  1.0000
  C   C127      1.0  0.03148  0.56612  0.68635  1.0000
  C   C128      1.0  0.53072  0.06634  0.82248  1.0000
  C   C129      1.0  0.06183  0.41291  0.72118  1.0000
  C   C130      1.0  0.43404  0.91319  0.81663  1.0000
  C   C131      1.0  0.06356  0.58552  0.69875  1.0000
  C   C132      1.0  0.56290  0.08565  0.83001  1.0000
  C   C133      1.0  0.09118  0.42148  0.81480  1.0000
  C   C134      1.0  0.40381  0.92081  0.91294  1.0000
  C   C135      1.0  0.09236  0.57748  0.79623  1.0000
  C   C136      1.0  0.59338  0.07644  0.91263  1.0000
  C   C137      1.0  0.11912  0.40071  0.83576  1.0000
  C   C138      1.0  0.37537  0.90021  0.92400  1.0000
  C   C139      1.0  0.12081  0.59784  0.81311  1.0000
  C   C140      1.0  0.62279  0.09596  0.91864  1.0000
  C   C141      1.0  0.11907  0.37079  0.76158  1.0000
  C   C142      1.0  0.37590  0.87158  0.83648  1.0000
  C   C143      1.0  0.12160  0.62675  0.73145  1.0000
  C   C144      1.0  0.62286  0.12537  0.84183  1.0000
  C   C145      1.0  0.08991  0.36220  0.66694  1.0000
  C   C146      1.0  0.40586  0.86406  0.73761  1.0000
  C   C147      1.0  0.09299  0.63480  0.63267  1.0000
  C   C148      1.0  0.59234  0.13479  0.76004  1.0000
  C   C149      1.0  0.06210  0.38272  0.64756  1.0000
  C   C150      1.0  0.43428  0.88439  0.72899  1.0000
  C   C151      1.0  0.06463  0.61468  0.61752  1.0000
  C   C152      1.0  0.56316  0.11537  0.75471  1.0000
  C   C153      1.0  0.84939  0.65241  0.76197  1.0000
  C   C154      1.0  0.34410  0.14807  0.84675  1.0000
  C   C155      1.0  0.14818  0.34877  0.78226  1.0000
  C   C156      1.0  0.65432  0.85553  0.83779  1.0000
  C   C157      1.0  0.84669  0.34918  0.73573  1.0000
  C   C158      1.0  0.34606  0.85008  0.84832  1.0000
  C   C159      1.0  0.15060  0.64875  0.75407  1.0000
  C   C160      1.0  0.65364  0.14586  0.84689  1.0000
  H   H61       1.0  0.90977  0.52886  0.63040  1.0000
  H   H62       1.0  0.40948  0.02829  0.76040  1.0000
  H   H63       1.0  0.08744  0.47011  0.64350  1.0000
  H   H64       1.0  0.58687  0.97132  0.73430  1.0000
  H   H65       1.0  0.90922  0.47162  0.62970  1.0000
  H   H66       1.0  0.40950  0.97115  0.75587  1.0000
  H   H67       1.0  0.08792  0.52731  0.63293  1.0000
  H   H68       1.0  0.58704  0.02852  0.74372  1.0000
  H   H69       1.0  0.09142  0.44409  0.87784  1.0000
  H   H70       1.0  0.40343  0.94233  0.98594  1.0000
  H   H71       1.0  0.09154  0.55599  0.86732  1.0000
  H   H72       1.0  0.59343  0.05435  0.97832  1.0000
  H   H73       1.0  0.14098  0.40752  0.91311  1.0000
  H   H74       1.0  0.35273  0.90604  0.00384  1.0000
  H   H75       1.0  0.14210  0.59187  0.89512  1.0000
  H   H76       1.0  0.64584  0.08853  0.98567  1.0000
  H   H77       1.0  0.09004  0.33921  0.60786  1.0000
  H   H78       1.0  0.40595  0.84221  0.66713  1.0000
  H   H79       1.0  0.09380  0.65708  0.56857  1.0000
  H   H80       1.0  0.59253  0.15742  0.69940  1.0000
  H   H81       1.0  0.04038  0.37583  0.56986  1.0000
  H   H82       1.0  0.45697  0.87860  0.64963  1.0000
  H   H83       1.0  0.04309  0.62093  0.53787  1.0000
  H   H84       1.0  0.54020  0.12268  0.68704  1.0000
  H   H85       1.0  0.83168  0.64924  0.87032  1.0000
  H   H86       1.0  0.32457  0.14440  0.94748  1.0000
  H   H87       1.0  0.16598  0.35319  0.88530  1.0000
  H   H88       1.0  0.67352  0.86163  0.93270  1.0000
  H   H89       1.0  0.82768  0.35324  0.83863  1.0000
  H   H90       1.0  0.32699  0.85405  0.95106  1.0000
  H   H91       1.0  0.16780  0.64476  0.85931  1.0000
  H   H92       1.0  0.67349  0.14014  0.93886  1.0000
  N   N17       1.0  0.84683  0.67589  0.66292  1.0000
  N   N18       1.0  0.34143  0.17022  0.73985  1.0000
  N   N19       1.0  0.15144  0.32473  0.68419  1.0000
  N   N20       1.0  0.65766  0.83145  0.74027  1.0000
  N   N21       1.0  0.84506  0.32487  0.63942  1.0000
  N   N22       1.0  0.34302  0.82717  0.74395  1.0000
  N   N23       1.0  0.15433  0.67250  0.65705  1.0000
  N   N24       1.0  0.65618  0.16960  0.74890  1.0000
  C   C161      1.0  0.99905  0.58173  0.69279  1.0000
  C   C162      1.0  0.99748  0.41780  0.70645  1.0000
  C   C163      1.0  0.49816  0.08167  0.83600  1.0000
  C   C164      1.0  0.49850  0.91780  0.81800  1.0000
  C   C165      1.0  0.99822  0.48283  0.67548  1.0000
  C   C166      1.0  0.99852  0.51642  0.67248  1.0000
  C   C167      1.0  0.49817  0.98308  0.79727  1.0000
  C   C168      1.0  0.49818  0.01663  0.80114  1.0000
  H   H93       1.0  0.99916  0.60697  0.71190  1.0000
  H   H94       1.0  0.99681  0.39278  0.72987  1.0000
  H   H95       1.0  0.49824  0.10675  0.86052  1.0000
  H   H96       1.0  0.49863  0.89265  0.83785  1.0000
  C   C169      1.0  0.17901  0.30335  0.69598  1.0000
  C   C170      1.0  0.17228  0.27197  0.65273  1.0000
  C   C171      1.0  0.19917  0.25013  0.66195  1.0000
  C   C172      1.0  0.23286  0.25987  0.71014  1.0000
  N   N25       1.0  0.24030  0.29021  0.74105  1.0000
  C   C173      1.0  0.21413  0.31107  0.73414  1.0000
  H   H97       1.0  0.14610  0.26550  0.61261  1.0000
  H   H98       1.0  0.19473  0.22576  0.62801  1.0000
  H   H99       1.0  0.22126  0.33556  0.75502  1.0000
  C   C174      1.0  0.68652  0.81122  0.74749  1.0000
  C   C175      1.0  0.68262  0.78150  0.67202  1.0000
  N   N26       1.0  0.70744  0.75936  0.66538  1.0000
  C   C176      1.0  0.73875  0.76616  0.73234  1.0000
  C   C177      1.0  0.74531  0.79504  0.81116  1.0000
  C   C178      1.0  0.71906  0.81770  0.81984  1.0000
  H   H100      1.0  0.65759  0.77605  0.61478  1.0000
  H   H101      1.0  0.77076  0.79924  0.86634  1.0000
  H   H102      1.0  0.72385  0.84005  0.88110  1.0000
  C   C179      1.0  0.81998  0.69804  0.68328  1.0000
  C   C180      1.0  0.82731  0.72916  0.63933  1.0000
  C   C181      1.0  0.80101  0.75156  0.65871  1.0000
  C   C182      1.0  0.76717  0.74241  0.71407  1.0000
  N   N27       1.0  0.75922  0.71232  0.74758  1.0000
  C   C183      1.0  0.78499  0.69109  0.73380  1.0000
  H   H103      1.0  0.85338  0.73494  0.58983  1.0000
  H   H104      1.0  0.80604  0.77584  0.62615  1.0000
  H   H105      1.0  0.77761  0.66684  0.75869  1.0000
  C   C184      1.0  0.31266  0.19069  0.74347  1.0000
  C   C185      1.0  0.31811  0.22047  0.67297  1.0000
  N   N28       1.0  0.29364  0.24283  0.66635  1.0000
  C   C186      1.0  0.26105  0.23612  0.72625  1.0000
  C   C187      1.0  0.25275  0.20692  0.79655  1.0000
  C   C188      1.0  0.27863  0.18407  0.80631  1.0000
  H   H106      1.0  0.34415  0.22589  0.62062  1.0000
  H   H107      1.0  0.22616  0.20257  0.84436  1.0000
  H   H108      1.0  0.27258  0.16138  0.86028  1.0000
  C   C189      1.0  0.18133  0.69429  0.67788  1.0000
  C   C190      1.0  0.17508  0.72509  0.62660  1.0000
  C   C191      1.0  0.20117  0.74752  0.64535  1.0000
  C   C192      1.0  0.23353  0.73876  0.71228  1.0000
  N   N29       1.0  0.24060  0.70891  0.75343  1.0000
  C   C193      1.0  0.21522  0.68755  0.73650  1.0000
  H   H109      1.0  0.14987  0.73045  0.57231  1.0000
  H   H110      1.0  0.19721  0.77140  0.60375  1.0000
  H   H111      1.0  0.22223  0.66350  0.76667  1.0000
  C   C194      1.0  0.68518  0.18983  0.74822  1.0000
  C   C195      1.0  0.68112  0.21829  0.66344  1.0000
  N   N30       1.0  0.70592  0.24032  0.64807  1.0000
  C   C196      1.0  0.73744  0.23469  0.71530  1.0000
  C   C197      1.0  0.74428  0.20698  0.80196  1.0000
  C   C198      1.0  0.71805  0.18450  0.81976  1.0000
  H   H112      1.0  0.65592  0.22274  0.60578  1.0000
  H   H113      1.0  0.76977  0.20376  0.85812  1.0000
  H   H114      1.0  0.72303  0.16327  0.88884  1.0000
  C   C199      1.0  0.81810  0.30292  0.65873  1.0000
  C   C200      1.0  0.82644  0.27121  0.63134  1.0000
  C   C201      1.0  0.80014  0.24887  0.64996  1.0000
  C   C202      1.0  0.76560  0.25847  0.69186  1.0000
  N   N31       1.0  0.75691  0.28896  0.71005  1.0000
  C   C203      1.0  0.78244  0.31031  0.69449  1.0000
  H   H115      1.0  0.85342  0.26493  0.59698  1.0000
  H   H116      1.0  0.80581  0.22420  0.62787  1.0000
  H   H117      1.0  0.77437  0.33480  0.70659  1.0000
  C   C204      1.0  0.31412  0.80698  0.75129  1.0000
  C   C205      1.0  0.31974  0.77591  0.69548  1.0000
  N   N32       1.0  0.29474  0.75408  0.68842  1.0000
  C   C206      1.0  0.26159  0.76245  0.73405  1.0000
  C   C207      1.0  0.25327  0.79272  0.79307  1.0000
  C   C208      1.0  0.27965  0.81522  0.80221  1.0000
  H   H118      1.0  0.34635  0.76906  0.65616  1.0000
  H   H119      1.0  0.22636  0.79826  0.83266  1.0000
  H   H120      1.0  0.27362  0.83890  0.84537  1.0000
  C   C209      1.0  0.58470  0.86712  0.72589  1.0000
  C   C210      1.0  0.61688  0.87318  0.80027  1.0000
  C  Sn1       1.0  0.62155  0.90066  0.89240  1.0000
  C  Sn2       1.0  0.59344  0.92243  0.91020  1.0000
  C   C211      1.0  0.56134  0.91614  0.83540  1.0000
  C   C212      1.0  0.55695  0.88857  0.74344  1.0000
  H   H121      1.0  0.58129  0.84578  0.65482  1.0000
  O  Te1       1.0  0.65388  0.90635  0.96584  1.0000
  O  Te2       1.0  0.60263  0.94821  0.00164  1.0000
  H   H122      1.0  0.53202  0.88388  0.68596  1.0000
  Mg  Mg1       1.0  0.65168  0.94547  0.07825  1.0000
  C   C213      1.0  0.91813  0.63496  0.12868  1.0000
  C   C214      1.0  0.88565  0.62970  0.20882  1.0000
  C  Sn3       1.0  0.87956  0.60188  0.29447  1.0000
  C  Sn4       1.0  0.90655  0.57894  0.29981  1.0000
  C   C215      1.0  0.93896  0.58443  0.21933  1.0000
  C   C216      1.0  0.94476  0.61235  0.13394  1.0000
  H   H123      1.0  0.92263  0.65656  0.06268  1.0000
  O  Te3       1.0  0.84695  0.59700  0.37380  1.0000
  O  Te4       1.0  0.90117  0.55094  0.38457  1.0000
  H   H124      1.0  0.96992  0.61642  0.07200  1.0000
  Mg  Mg2       1.0  0.85228  0.55511  0.47324  1.0000
  C   C217      1.0  0.89689  0.58170  0.82179  1.0000
  C   C218      1.0  0.92627  0.58335  0.71458  1.0000
  C  Sn5       1.0  0.93206  0.60992  0.61818  1.0000
  C  Sn6       1.0  0.90795  0.63529  0.62962  1.0000
  C   C219      1.0  0.87865  0.63342  0.73734  1.0000
  C   C220      1.0  0.87310  0.60672  0.83320  1.0000
  H   H125      1.0  0.89261  0.56105  0.89602  1.0000
  O  Te5       1.0  0.96154  0.61118  0.51166  1.0000
  O  Te6       1.0  0.91311  0.66213  0.53474  1.0000
  H   H126      1.0  0.85037  0.60546  0.91628  1.0000
  Mg  Mg3       1.0  0.95718  0.65276  0.40768  1.0000
  C   C221      1.0  0.88180  0.40852  0.31726  1.0000
  C   C222      1.0  0.87640  0.38012  0.23432  1.0000
  C  Sn7       1.0  0.90250  0.36790  0.12722  1.0000
  C  Sn8       1.0  0.93459  0.38448  0.10298  1.0000
  C   C223      1.0  0.93975  0.41286  0.18663  1.0000
  C   C224      1.0  0.91345  0.42488  0.29348  1.0000
  H   H127      1.0  0.86147  0.41781  0.40001  1.0000
  O  Te7       1.0  0.89666  0.33950  0.04529  1.0000
  O  Te8       1.0  0.95589  0.37466  0.99669  1.0000
  H   H128      1.0  0.91766  0.44686  0.35776  1.0000
  Mg  Mg4       1.0  0.93552  0.33504  0.91303  1.0000
  C   C225      1.0  0.41522  0.13428  0.74401  1.0000
  C   C226      1.0  0.38166  0.12939  0.81407  1.0000
  C  Sn9       1.0  0.37435  0.10213  0.90278  1.0000
  C  Sn10      1.0  0.40118  0.07940  0.92153  1.0000
  C   C227      1.0  0.43467  0.08452  0.85106  1.0000
  C   C228      1.0  0.44170  0.11187  0.76250  1.0000
  H   H129      1.0  0.42067  0.15545  0.67556  1.0000
  O  Te9       1.0  0.34067  0.09762  0.97192  1.0000
  O  Te10      1.0  0.39982  0.05009  0.00962  1.0000
  H   H130      1.0  0.46769  0.11566  0.70836  1.0000
  Mg  Mg5       1.0  0.34978  0.05459  0.08090  1.0000
  C   C229      1.0  0.58792  0.13339  0.22945  1.0000
  C   C230      1.0  0.61787  0.13029  0.32515  1.0000
  C  Sn11      1.0  0.62232  0.10375  0.42219  1.0000
  C  Sn12      1.0  0.59628  0.07991  0.42315  1.0000
  C   C231      1.0  0.56642  0.08322  0.32688  1.0000
  C   C232      1.0  0.56222  0.10988  0.23027  1.0000
  H   H131      1.0  0.58467  0.15400  0.15462  1.0000
  O  Te11      1.0  0.65239  0.10103  0.51712  1.0000
  O  Te12      1.0  0.60008  0.05313  0.51895  1.0000
  H   H132      1.0  0.53904  0.11226  0.15610  1.0000
  Mg  Mg6       1.0  0.64565  0.06018  0.62744  1.0000
  C   C233      1.0  0.39650  0.92333  0.42691  1.0000
  C   C234      1.0  0.42914  0.91741  0.34912  1.0000
  C  Sn13      1.0  0.43452  0.88993  0.25670  1.0000
  C  Sn14      1.0  0.40664  0.86801  0.24208  1.0000
  C   C235      1.0  0.37407  0.87415  0.32028  1.0000
  C   C236      1.0  0.36898  0.90173  0.41250  1.0000
  H   H133      1.0  0.39255  0.94467  0.49819  1.0000
  O  Te13      1.0  0.46730  0.88438  0.17982  1.0000
  O  Te14      1.0  0.41128  0.84036  0.15041  1.0000
  H   H134      1.0  0.34369  0.90631  0.47263  1.0000
  Mg  Mg7       1.0  0.46076  0.84333  0.06851  1.0000
  C   C237      1.0  0.91383  0.36649  0.59556  1.0000
  C   C238      1.0  0.88379  0.36824  0.69872  1.0000
  C  Sn15      1.0  0.87770  0.39468  0.79856  1.0000
  C  Sn16      1.0  0.90219  0.41980  0.79475  1.0000
  C   C239      1.0  0.93215  0.41782  0.69104  1.0000
  C   C240      1.0  0.93799  0.39125  0.59168  1.0000
  H   H135      1.0  0.91834  0.34594  0.51862  1.0000
  O  Te15      1.0  0.84756  0.39605  0.90095  1.0000
  O  Te16      1.0  0.89675  0.44650  0.89321  1.0000
  H   H136      1.0  0.96124  0.38990  0.51174  1.0000
  Mg  Mg8       1.0  0.85699  0.43551  0.01228  1.0000
