data_image0
_chemical_formula_structural       C32H16N8C8H4C4NCH3C4NCH3C4NCH3C4NCH3C4NCH3C4NCH3C4NCH3C4NCH3C32H16N8C8H4C4NCH3C4NCH3C4NCH3C4NCH3C4NCH3C4NCH3C4NCH3C4NCH3SnCSn2CSnTe4Mg2SnCSn2CSnTe4Mg2SnCSn2CSnTe4Mg2SnCSn2CSnTe4Mg2SnCSn2CSnTe4Mg2SnCSn2CSnTe4Mg2SnCSn2CSnTe4Mg2SnCSn2CSnTe4Mg2SnCSn2CSnTe4Mg2SnCSn2CSnTe4Mg2SnCSn2CSnTe4Mg2SnCSn2CSnTe4Mg2SnCSn2CSnTe4Mg2SnCSn2CSnTe4Mg2SnCSn2CSnTe4Mg2SnCSn2CSnTe4Mg2
_chemical_formula_sum              "C192 H88 N32 Sn64 Te64 Mg32"
_cell_length_a       40.3173
_cell_length_b       40.0043
_cell_length_c       8.12725
_cell_angle_alpha    89.192
_cell_angle_beta     65.0178
_cell_angle_gamma    89.7956

_symmetry_space_group_name_H-M    'P1'
_space_group_IT_number       1

loop_
  _space_group_symop_operation_xyz
  'x, y, z'

loop_
  _atom_site_type_symbol
  _atom_site_label
  _atom_site_symmetry_multiplicity
  _atom_site_fract_x
  _atom_site_fract_y
  _atom_site_fract_z
  _atom_site_occupancy
  C   C1        1.0  0.97482  0.46616  0.25442  1.0000
  C   C2        1.0  0.47399  0.96669  0.25053  1.0000
  C   C3        1.0  0.03664  0.53744  0.25112  1.0000
  C   C4        1.0  0.53726  0.03714  0.24461  1.0000
  C   C5        1.0  0.97368  0.53731  0.26698  1.0000
  C   C6        1.0  0.47429  0.03785  0.26146  1.0000
  C   C7        1.0  0.03750  0.46565  0.24215  1.0000
  C   C8        1.0  0.53699  0.96533  0.23443  1.0000
  C   C9        1.0  0.94618  0.51910  0.23880  1.0000
  C   C10       1.0  0.44638  0.02015  0.23385  1.0000
  C   C11       1.0  0.07020  0.48470  0.19628  1.0000
  C   C12       1.0  0.57001  0.98398  0.18664  1.0000
  C   C13       1.0  0.94684  0.48497  0.23174  1.0000
  C   C14       1.0  0.44624  0.98601  0.22860  1.0000
  C   C15       1.0  0.06975  0.51885  0.20094  1.0000
  C   C16       1.0  0.57011  0.01813  0.19203  1.0000
  C   C17       1.0  0.97211  0.57254  0.28976  1.0000
  C   C18       1.0  0.47329  0.07301  0.28501  1.0000
  C   C19       1.0  0.03573  0.43013  0.26325  1.0000
  C   C20       1.0  0.53488  0.92980  0.25463  1.0000
  C   C21       1.0  0.97402  0.43074  0.26864  1.0000
  C   C22       1.0  0.47273  0.93122  0.26455  1.0000
  C   C23       1.0  0.03451  0.57273  0.27538  1.0000
  C   C24       1.0  0.53570  0.07242  0.27068  1.0000
  C   C25       1.0  0.85050  0.65347  0.32719  1.0000
  C   C26       1.0  0.35222  0.15380  0.31801  1.0000
  C   C27       1.0  0.15347  0.34627  0.25341  1.0000
  C   C28       1.0  0.65237  0.84542  0.24584  1.0000
  C   C29       1.0  0.85424  0.34757  0.31323  1.0000
  C   C30       1.0  0.35288  0.84805  0.30732  1.0000
  C   C31       1.0  0.15254  0.65519  0.26437  1.0000
  C   C32       1.0  0.65509  0.15398  0.25703  1.0000
  H   H1        1.0  0.92489  0.53294  0.21893  1.0000
  H   H2        1.0  0.42547  0.03439  0.21275  1.0000
  H   H3        1.0  0.09619  0.47175  0.15227  1.0000
  H   H4        1.0  0.59580  0.97068  0.14059  1.0000
  H   H5        1.0  0.92625  0.47163  0.20500  1.0000
  H   H6        1.0  0.42522  0.97314  0.20311  1.0000
  H   H7        1.0  0.09537  0.53231  0.16098  1.0000
  H   H8        1.0  0.59591  0.03130  0.15087  1.0000
  H   H9        1.0  0.82284  0.64370  0.41023  1.0000
  H   H10       1.0  0.32462  0.14441  0.40510  1.0000
  H   H11       1.0  0.16812  0.35494  0.33230  1.0000
  H   H12       1.0  0.66683  0.85418  0.32555  1.0000
  H   H13       1.0  0.82666  0.35606  0.40504  1.0000
  H   H14       1.0  0.32512  0.85697  0.39366  1.0000
  H   H15       1.0  0.16622  0.64562  0.34709  1.0000
  H   H16       1.0  0.67000  0.14341  0.33169  1.0000
  N   N1        1.0  0.85567  0.68195  0.24307  1.0000
  N   N2        1.0  0.35745  0.18221  0.23323  1.0000
  N   N3        1.0  0.16094  0.31804  0.16953  1.0000
  N   N4        1.0  0.65977  0.81704  0.16318  1.0000
  N   N5        1.0  0.85943  0.31980  0.22705  1.0000
  N   N6        1.0  0.35837  0.81966  0.22644  1.0000
  N   N7        1.0  0.16061  0.68403  0.18263  1.0000
  N   N8        1.0  0.66221  0.18341  0.18139  1.0000
  C   C33       1.0  0.00204  0.58887  0.29653  1.0000
  C   C34       1.0  0.50332  0.08891  0.29317  1.0000
  C   C35       1.0  0.00366  0.41415  0.27808  1.0000
  C   C36       1.0  0.50252  0.91424  0.27078  1.0000
  C   C37       1.0  0.00579  0.48373  0.25321  1.0000
  C   C38       1.0  0.50542  0.98381  0.24750  1.0000
  C   C39       1.0  0.00526  0.51953  0.25887  1.0000
  C   C40       1.0  0.50555  0.01961  0.25316  1.0000
  H   H17       1.0  0.99973  0.61558  0.32139  1.0000
  H   H18       1.0  0.50111  0.11554  0.32025  1.0000
  H   H19       1.0  0.00110  0.38731  0.30149  1.0000
  H   H20       1.0  0.49988  0.88737  0.29256  1.0000
  C   C41       1.0  0.18923  0.29860  0.17543  1.0000
  C   C42       1.0  0.18655  0.26363  0.17257  1.0000
  C   C43       1.0  0.21372  0.24406  0.18652  1.0000
  C   C44       1.0  0.24362  0.25958  0.20064  1.0000
  N   N9        1.0  0.24772  0.29323  0.19112  1.0000
  C   C45       1.0  0.22145  0.31181  0.17778  1.0000
  H   H21       1.0  0.16287  0.25279  0.16151  1.0000
  H   H22       1.0  0.21266  0.21693  0.18690  1.0000
  H   H23       1.0  0.22626  0.33873  0.16322  1.0000
  C   C46       1.0  0.68802  0.79744  0.16857  1.0000
  C   C47       1.0  0.68610  0.76249  0.15737  1.0000
  C   C48       1.0  0.71351  0.74267  0.16767  1.0000
  C   C49       1.0  0.74290  0.75797  0.18766  1.0000
  N   N10       1.0  0.74618  0.79166  0.18718  1.0000
  C   C50       1.0  0.71981  0.81045  0.17660  1.0000
  H   H24       1.0  0.66284  0.75166  0.14224  1.0000
  H   H25       1.0  0.71304  0.71559  0.16068  1.0000
  H   H26       1.0  0.72419  0.83743  0.16909  1.0000
  C   C51       1.0  0.82662  0.70051  0.24080  1.0000
  C   C52       1.0  0.82790  0.73560  0.24778  1.0000
  C   C53       1.0  0.80026  0.75451  0.23453  1.0000
  C   C54       1.0  0.77198  0.73827  0.20844  1.0000
  N   N11       1.0  0.77041  0.70455  0.20075  1.0000
  C   C55       1.0  0.79672  0.68655  0.21837  1.0000
  H   H27       1.0  0.85040  0.74710  0.26689  1.0000
  H   H28       1.0  0.79975  0.78165  0.24218  1.0000
  H   H29       1.0  0.79511  0.65947  0.20781  1.0000
  C   C56       1.0  0.32813  0.20127  0.23832  1.0000
  C   C57       1.0  0.33039  0.23632  0.24202  1.0000
  C   C58       1.0  0.30233  0.25560  0.23577  1.0000
  C   C59       1.0  0.27270  0.23976  0.22016  1.0000
  N   N12       1.0  0.27004  0.20606  0.21763  1.0000
  C   C60       1.0  0.29681  0.18773  0.22797  1.0000
  H   H30       1.0  0.35404  0.24757  0.25145  1.0000
  H   H31       1.0  0.30268  0.28274  0.23998  1.0000
  H   H32       1.0  0.29434  0.16067  0.22151  1.0000
  C   C61       1.0  0.18850  0.70326  0.19284  1.0000
  C   C62       1.0  0.18749  0.73813  0.17095  1.0000
  C   C63       1.0  0.21488  0.75789  0.17992  1.0000
  C   C64       1.0  0.24329  0.74255  0.21001  1.0000
  N   N13       1.0  0.24543  0.70890  0.22380  1.0000
  C   C65       1.0  0.21902  0.69019  0.21450  1.0000
  H   H33       1.0  0.16503  0.74885  0.14711  1.0000
  H   H34       1.0  0.21533  0.78490  0.16242  1.0000
  H   H35       1.0  0.22243  0.66318  0.21990  1.0000
  C   C66       1.0  0.69044  0.20275  0.18802  1.0000
  C   C67       1.0  0.68957  0.23754  0.16243  1.0000
  C   C68       1.0  0.71698  0.25755  0.16972  1.0000
  C   C69       1.0  0.74525  0.24261  0.20246  1.0000
  N   N14       1.0  0.74751  0.20898  0.21762  1.0000
  C   C70       1.0  0.72114  0.19005  0.20948  1.0000
  H   H36       1.0  0.66722  0.24804  0.13696  1.0000
  H   H37       1.0  0.71743  0.28446  0.14918  1.0000
  H   H38       1.0  0.72471  0.16311  0.21648  1.0000
  C   C71       1.0  0.83000  0.30081  0.23440  1.0000
  C   C72       1.0  0.83182  0.26575  0.24350  1.0000
  C   C73       1.0  0.80363  0.24666  0.23907  1.0000
  C   C74       1.0  0.77449  0.26263  0.21783  1.0000
  N   N15       1.0  0.77240  0.29635  0.20831  1.0000
  C   C75       1.0  0.79909  0.31455  0.21917  1.0000
  H   H39       1.0  0.85523  0.25444  0.25607  1.0000
  H   H40       1.0  0.80340  0.21951  0.24900  1.0000
  H   H41       1.0  0.79700  0.34168  0.20921  1.0000
  C   C76       1.0  0.32897  0.80056  0.23381  1.0000
  C   C77       1.0  0.33017  0.76556  0.24936  1.0000
  C   C78       1.0  0.30177  0.74649  0.24696  1.0000
  C   C79       1.0  0.27285  0.76238  0.22330  1.0000
  N   N16       1.0  0.27134  0.79604  0.20810  1.0000
  C   C80       1.0  0.29841  0.81421  0.21493  1.0000
  H   H42       1.0  0.35317  0.75423  0.26581  1.0000
  H   H43       1.0  0.30125  0.71940  0.26079  1.0000
  H   H44       1.0  0.29689  0.84122  0.19816  1.0000
  C   C81       1.0  0.96082  0.46363  0.75376  1.0000
  C   C82       1.0  0.46160  0.96364  0.74917  1.0000
  C   C83       1.0  0.02474  0.53405  0.74000  1.0000
  C   C84       1.0  0.52431  0.03531  0.73667  1.0000
  C   C85       1.0  0.96124  0.53507  0.76248  1.0000
  C   C86       1.0  0.46060  0.03539  0.76234  1.0000
  C   C87       1.0  0.02417  0.46239  0.73214  1.0000
  C   C88       1.0  0.52509  0.96362  0.72649  1.0000
  C   C89       1.0  0.93249  0.51713  0.74376  1.0000
  C   C90       1.0  0.43221  0.01691  0.74301  1.0000
  C   C91       1.0  0.05711  0.48082  0.68910  1.0000
  C   C92       1.0  0.55769  0.98265  0.68260  1.0000
  C   C93       1.0  0.93231  0.48296  0.73945  1.0000
  C   C94       1.0  0.43277  0.98271  0.73607  1.0000
  C   C95       1.0  0.05739  0.51492  0.69248  1.0000
  C   C96       1.0  0.55732  0.01674  0.68803  1.0000
  C   C97       1.0  0.96049  0.57033  0.78492  1.0000
  C   C98       1.0  0.45940  0.07071  0.78502  1.0000
  C   C99       1.0  0.02206  0.42692  0.75118  1.0000
  C   C100      1.0  0.52378  0.92809  0.74515  1.0000
  C   C101      1.0  0.95966  0.42812  0.76695  1.0000
  C   C102      1.0  0.46129  0.92801  0.75982  1.0000
  C   C103      1.0  0.02314  0.56923  0.76754  1.0000
  C   C104      1.0  0.52246  0.07056  0.76213  1.0000
  C   C105      1.0  0.84221  0.65665  0.82550  1.0000
  C   C106      1.0  0.33931  0.15451  0.82653  1.0000
  C   C107      1.0  0.13918  0.34387  0.75100  1.0000
  C   C108      1.0  0.64380  0.84853  0.74519  1.0000
  C   C109      1.0  0.84097  0.34320  0.81051  1.0000
  C   C110      1.0  0.34335  0.84166  0.80131  1.0000
  C   C111      1.0  0.14345  0.64770  0.76233  1.0000
  C   C112      1.0  0.64147  0.15124  0.75694  1.0000
  H   H45       1.0  0.91063  0.53117  0.73038  1.0000
  H   H46       1.0  0.40995  0.03051  0.73099  1.0000
  H   H47       1.0  0.08268  0.46737  0.65006  1.0000
  H   H48       1.0  0.58361  0.96967  0.64022  1.0000
  H   H49       1.0  0.91046  0.46994  0.72192  1.0000
  H   H50       1.0  0.41114  0.96952  0.71744  1.0000
  H   H51       1.0  0.08322  0.52784  0.65544  1.0000
  H   H52       1.0  0.58290  0.03011  0.65110  1.0000
  H   H53       1.0  0.81415  0.64740  0.90298  1.0000
  H   H54       1.0  0.31139  0.14488  0.90458  1.0000
  H   H55       1.0  0.15217  0.35221  0.83838  1.0000
  H   H56       1.0  0.65643  0.85754  0.83288  1.0000
  H   H57       1.0  0.81295  0.35143  0.89650  1.0000
  H   H58       1.0  0.31536  0.85066  0.88161  1.0000
  H   H59       1.0  0.15762  0.63691  0.84029  1.0000
  H   H60       1.0  0.65489  0.14140  0.84056  1.0000
  N   N17       1.0  0.84878  0.68531  0.74221  1.0000
  N   N18       1.0  0.34541  0.18308  0.74241  1.0000
  N   N19       1.0  0.14873  0.31640  0.66052  1.0000
  N   N20       1.0  0.65386  0.82102  0.65566  1.0000
  N   N21       1.0  0.84736  0.31529  0.72437  1.0000
  N   N22       1.0  0.34956  0.81293  0.72309  1.0000
  N   N23       1.0  0.15188  0.67671  0.68266  1.0000
  N   N24       1.0  0.65053  0.17970  0.67183  1.0000
  C   C113      1.0  0.99092  0.58594  0.79040  1.0000
  C   C114      1.0  0.48995  0.08683  0.78639  1.0000
  C   C115      1.0  0.98983  0.41118  0.76849  1.0000
  C   C116      1.0  0.49191  0.91171  0.76097  1.0000
  C   C117      1.0  0.99260  0.48088  0.74542  1.0000
  C   C118      1.0  0.49303  0.98152  0.74155  1.0000
  C   C119      1.0  0.99284  0.51672  0.74965  1.0000
  C   C120      1.0  0.49260  0.01744  0.74746  1.0000
  H   H61       1.0  0.98893  0.61250  0.81826  1.0000
  H   H62       1.0  0.48786  0.11347  0.81217  1.0000
  H   H63       1.0  0.98750  0.38430  0.78992  1.0000
  H   H64       1.0  0.49033  0.88477  0.78071  1.0000
  C   C121      1.0  0.17727  0.29760  0.66823  1.0000
  C   C122      1.0  0.17647  0.26268  0.65420  1.0000
  C   C123      1.0  0.20413  0.24361  0.66661  1.0000
  C   C124      1.0  0.23248  0.25962  0.69270  1.0000
  N   N25       1.0  0.23469  0.29336  0.69572  1.0000
  C   C125      1.0  0.20816  0.31146  0.68198  1.0000
  H   H65       1.0  0.15384  0.25132  0.63574  1.0000
  H   H66       1.0  0.20476  0.21657  0.65569  1.0000
  H   H67       1.0  0.21168  0.33853  0.67610  1.0000
  C   C126      1.0  0.68255  0.80229  0.66240  1.0000
  C   C127      1.0  0.68150  0.76736  0.64809  1.0000
  C   C128      1.0  0.70933  0.74818  0.65761  1.0000
  C   C129      1.0  0.73829  0.76397  0.67939  1.0000
  N   N26       1.0  0.74065  0.79768  0.68349  1.0000
  C   C130      1.0  0.71370  0.81594  0.67451  1.0000
  H   H68       1.0  0.65854  0.75615  0.63175  1.0000
  H   H69       1.0  0.70961  0.72113  0.64806  1.0000
  H   H70       1.0  0.71710  0.84301  0.67210  1.0000
  C   C131      1.0  0.82076  0.70476  0.73463  1.0000
  C   C132      1.0  0.82269  0.73979  0.74349  1.0000
  C   C133      1.0  0.79589  0.75948  0.72657  1.0000
  C   C134      1.0  0.76748  0.74407  0.69807  1.0000
  N   N27       1.0  0.76545  0.71044  0.68764  1.0000
  C   C135      1.0  0.79120  0.69173  0.70554  1.0000
  H   H71       1.0  0.84489  0.75065  0.76781  1.0000
  H   H72       1.0  0.79611  0.78659  0.73476  1.0000
  H   H73       1.0  0.78931  0.66478  0.69117  1.0000
  C   C136      1.0  0.31669  0.20202  0.73919  1.0000
  C   C137      1.0  0.31776  0.23703  0.75105  1.0000
  C   C138      1.0  0.28999  0.25618  0.74058  1.0000
  C   C139      1.0  0.26176  0.24020  0.71288  1.0000
  N   N28       1.0  0.26039  0.20656  0.70113  1.0000
  C   C140      1.0  0.28694  0.18837  0.71455  1.0000
  H   H74       1.0  0.34020  0.24832  0.77151  1.0000
  H   H75       1.0  0.28948  0.28325  0.75223  1.0000
  H   H76       1.0  0.28561  0.16138  0.69936  1.0000
  C   C141      1.0  0.18046  0.69547  0.68908  1.0000
  C   C142      1.0  0.18075  0.73009  0.65625  1.0000
  C   C143      1.0  0.20845  0.74970  0.66274  1.0000
  C   C144      1.0  0.23574  0.73445  0.70223  1.0000
  N   N29       1.0  0.23680  0.70091  0.72558  1.0000
  C   C145      1.0  0.21017  0.68233  0.71788  1.0000
  H   H77       1.0  0.15918  0.74077  0.62509  1.0000
  H   H78       1.0  0.21007  0.77648  0.63600  1.0000
  H   H79       1.0  0.21280  0.65538  0.73083  1.0000
  C   C146      1.0  0.67905  0.19852  0.67825  1.0000
  C   C147      1.0  0.67876  0.23332  0.65217  1.0000
  C   C148      1.0  0.70644  0.25279  0.65974  1.0000
  C   C149      1.0  0.73440  0.23725  0.69272  1.0000
  N   N30       1.0  0.73613  0.20360  0.70819  1.0000
  C   C150      1.0  0.70947  0.18514  0.69984  1.0000
  H   H80       1.0  0.65666  0.24426  0.62634  1.0000
  H   H81       1.0  0.70750  0.27973  0.63918  1.0000
  H   H82       1.0  0.71256  0.15810  0.70546  1.0000
  C   C151      1.0  0.81863  0.29588  0.72648  1.0000
  C   C152      1.0  0.82060  0.26084  0.73748  1.0000
  C   C153      1.0  0.79291  0.24143  0.72984  1.0000
  C   C154      1.0  0.76377  0.25709  0.70729  1.0000
  N   N31       1.0  0.76156  0.29075  0.69637  1.0000
  C   C155      1.0  0.78806  0.30924  0.70655  1.0000
  H   H83       1.0  0.84361  0.24980  0.75513  1.0000
  H   H84       1.0  0.79305  0.21430  0.73963  1.0000
  H   H85       1.0  0.78587  0.33628  0.69347  1.0000
  C   C156      1.0  0.32072  0.79341  0.72679  1.0000
  C   C157      1.0  0.32222  0.75842  0.74373  1.0000
  C   C158      1.0  0.29415  0.73892  0.74047  1.0000
  C   C159      1.0  0.26525  0.75440  0.71483  1.0000
  N   N32       1.0  0.26361  0.78798  0.69679  1.0000
  C   C160      1.0  0.29040  0.80655  0.70350  1.0000
  H   H86       1.0  0.34524  0.74743  0.76162  1.0000
  H   H87       1.0  0.29394  0.71186  0.75528  1.0000
  H   H88       1.0  0.28876  0.83346  0.68378  1.0000
  C  Sn1       1.0  0.89565  0.58109  0.38579  1.0000
  C   C161      1.0  0.93305  0.58698  0.28527  1.0000
  C  Sn2       1.0  0.94560  0.61857  0.20965  1.0000
  C  Sn3       1.0  0.92024  0.64484  0.23512  1.0000
  C   C162      1.0  0.88287  0.63895  0.33561  1.0000
  C  Sn4       1.0  0.87029  0.60735  0.41125  1.0000
  O  Te1       1.0  0.88371  0.54931  0.46015  1.0000
  O  Te2       1.0  0.98311  0.62386  0.10964  1.0000
  O  Te3       1.0  0.93221  0.67664  0.16064  1.0000
  O  Te4       1.0  0.83280  0.60207  0.51124  1.0000
  Mg  Mg1       1.0  0.98598  0.67149  0.03532  1.0000
  Mg  Mg2       1.0  0.82990  0.55445  0.58569  1.0000
  C  Sn5       1.0  0.44402  0.13419  0.22554  1.0000
  C   C163      1.0  0.44260  0.10434  0.31977  1.0000
  C  Sn6       1.0  0.40986  0.08642  0.40209  1.0000
  C  Sn7       1.0  0.37787  0.09858  0.38989  1.0000
  C   C164      1.0  0.37930  0.12841  0.29569  1.0000
  C  Sn8       1.0  0.41204  0.14634  0.21334  1.0000
  O  Te5       1.0  0.47705  0.15169  0.14428  1.0000
  O  Te6       1.0  0.40911  0.05665  0.49560  1.0000
  O  Te7       1.0  0.34483  0.08105  0.47126  1.0000
  O  Te8       1.0  0.41279  0.17609  0.11985  1.0000
  Mg  Mg3       1.0  0.35761  0.04177  0.58348  1.0000
  Mg  Mg4       1.0  0.46428  0.19099  0.03185  1.0000
  C  Sn9       1.0  0.06746  0.36649  0.25550  1.0000
  C   C165      1.0  0.06110  0.40007  0.30419  1.0000
  C  Sn10      1.0  0.08837  0.41938  0.32005  1.0000
  C  Sn11      1.0  0.12274  0.40484  0.28642  1.0000
  C   C166      1.0  0.12909  0.37129  0.23773  1.0000
  C  Sn12      1.0  0.10183  0.35196  0.22187  1.0000
  O  Te9       1.0  0.03980  0.34766  0.24044  1.0000
  O  Te10      1.0  0.08136  0.45289  0.36897  1.0000
  O  Te11      1.0  0.15040  0.42371  0.30153  1.0000
  O  Te12      1.0  0.10883  0.31847  0.17295  1.0000
  Mg  Mg5       1.0  0.12773  0.46828  0.37181  1.0000
  Mg  Mg6       1.0  0.06249  0.30306  0.16998  1.0000
  C  Sn13      1.0  0.59619  0.86079  0.13680  1.0000
  C   C167      1.0  0.62284  0.86776  0.19901  1.0000
  C  Sn14      1.0  0.61895  0.89515  0.31037  1.0000
  C  Sn15      1.0  0.58776  0.91600  0.36069  1.0000
  C   C168      1.0  0.56113  0.90902  0.29852  1.0000
  C  Sn16      1.0  0.56500  0.88164  0.18712  1.0000
  O  Te13      1.0  0.60064  0.83327  0.02561  1.0000
  O  Te14      1.0  0.64597  0.90163  0.37082  1.0000
  O  Te15      1.0  0.58333  0.94354  0.47196  1.0000
  O  Te16      1.0  0.53801  0.87515  0.12670  1.0000
  Mg  Mg7       1.0  0.62756  0.94205  0.51980  1.0000
  Mg  Mg8       1.0  0.47125  0.83217  0.97780  1.0000
  C  Sn17      1.0  0.92962  0.35795  0.21481  1.0000
  C   C169      1.0  0.89212  0.36288  0.31593  1.0000
  C  Sn18      1.0  0.87891  0.39399  0.39159  1.0000
  C  Sn19      1.0  0.90370  0.42075  0.36555  1.0000
  C   C170      1.0  0.94117  0.41582  0.26446  1.0000
  C  Sn20      1.0  0.95441  0.38471  0.18877  1.0000
  O  Te17      1.0  0.94222  0.32664  0.14040  1.0000
  O  Te18      1.0  0.84131  0.39831  0.49221  1.0000
  O  Te19      1.0  0.89106  0.45208  0.44006  1.0000
  O  Te20      1.0  0.99199  0.38039  0.08818  1.0000
  Mg  Mg9       1.0  0.83743  0.44562  0.56632  1.0000
  Mg  Mg10      1.0  0.99589  0.33309  0.01393  1.0000
  C  Sn21      1.0  0.37982  0.90990  0.36158  1.0000
  C   C171      1.0  0.38187  0.87975  0.27303  1.0000
  C  Sn22      1.0  0.41504  0.86264  0.19294  1.0000
  C  Sn23      1.0  0.44682  0.87593  0.20162  1.0000
  C   C172      1.0  0.44476  0.90605  0.29015  1.0000
  C  Sn24      1.0  0.41160  0.92319  0.37027  1.0000
  O  Te21      1.0  0.34637  0.92658  0.44071  1.0000
  O  Te22      1.0  0.41641  0.83254  0.10511  1.0000
  O  Te23      1.0  0.48028  0.85922  0.12240  1.0000
  O  Te24      1.0  0.41021  0.95326  0.45808  1.0000
  Mg  Mg11      1.0  0.46830  0.81908  0.01819  1.0000
  Mg  Mg12      1.0  0.35834  0.96673  0.54513  1.0000
  C  Sn25      1.0  0.09114  0.58736  0.39064  1.0000
  C   C173      1.0  0.06418  0.59513  0.33089  1.0000
  C  Sn26      1.0  0.06868  0.62235  0.21379  1.0000
  C  Sn27      1.0  0.10081  0.64222  0.15507  1.0000
  C   C174      1.0  0.12775  0.63445  0.21479  1.0000
  C  Sn28      1.0  0.12327  0.60723  0.33193  1.0000
  O  Te25      1.0  0.08607  0.56003  0.50769  1.0000
  O  Te26      1.0  0.04134  0.62963  0.15594  1.0000
  O  Te27      1.0  0.10586  0.66957  0.03794  1.0000
  O  Te28      1.0  0.15059  0.59994  0.38974  1.0000
  Mg  Mg13      1.0  0.97574  0.66687  0.99667  1.0000
  Mg  Mg14      1.0  0.13110  0.56015  0.54893  1.0000
  C  Sn29      1.0  0.62228  0.09053  0.27757  1.0000
  C   C175      1.0  0.63061  0.12354  0.21536  1.0000
  C  Sn30      1.0  0.60444  0.14363  0.19224  1.0000
  C  Sn31      1.0  0.56920  0.13045  0.23224  1.0000
  C   C176      1.0  0.56089  0.09747  0.29444  1.0000
  C  Sn32      1.0  0.58705  0.07736  0.31757  1.0000
  O  Te29      1.0  0.64887  0.07090  0.29969  1.0000
  O  Te30      1.0  0.61340  0.17655  0.12981  1.0000
  O  Te31      1.0  0.54262  0.15011  0.21006  1.0000
  O  Te32      1.0  0.57810  0.04446  0.37999  1.0000
  Mg  Mg15      1.0  0.56790  0.19343  0.12159  1.0000
  Mg  Mg16      1.0  0.62357  0.02756  0.38835  1.0000
  C  Sn33      1.0  0.88429  0.58181  0.88226  1.0000
  C   C177      1.0  0.92194  0.58684  0.78535  1.0000
  C  Sn34      1.0  0.93570  0.61845  0.71484  1.0000
  C  Sn35      1.0  0.91132  0.64561  0.74185  1.0000
  C   C178      1.0  0.87370  0.64058  0.83873  1.0000
  C  Sn36      1.0  0.85991  0.60897  0.90927  1.0000
  O  Te33      1.0  0.87115  0.55000  0.95154  1.0000
  O  Te34      1.0  0.97345  0.62287  0.61837  1.0000
  O  Te35      1.0  0.92450  0.67744  0.67247  1.0000
  O  Te36      1.0  0.90732  0.60711  0.00571  1.0000
  Mg  Mg17      1.0  0.97813  0.67092  0.55055  1.0000
  Mg  Mg18      1.0  0.90261  0.55908  0.07367  1.0000
  C  Sn37      1.0  0.41299  0.13501  0.66307  1.0000
  C   C179      1.0  0.37563  0.13069  0.77179  1.0000
  C  Sn38      1.0  0.36367  0.10796  0.91746  1.0000
  C  Sn39      1.0  0.38960  0.08918  0.95534  1.0000
  C   C180      1.0  0.42693  0.09351  0.84668  1.0000
  C  Sn40      1.0  0.43892  0.11623  0.70095  1.0000
  O  Te37      1.0  0.42433  0.15787  0.51815  1.0000
  O  Te38      1.0  0.41130  0.10662  0.02419  1.0000
  O  Te39      1.0  0.46336  0.06886  0.10040  1.0000
  O  Te40      1.0  0.47639  0.12014  0.59429  1.0000
  Mg  Mg19      1.0  0.40937  0.07242  0.20651  1.0000
  Mg  Mg20      1.0  0.47836  0.15434  0.41199  1.0000
  C  Sn41      1.0  0.09300  0.39907  0.87660  1.0000
  C   C181      1.0  0.10293  0.36727  0.80286  1.0000
  C  Sn42      1.0  0.08867  0.35463  0.68669  1.0000
  C  Sn43      1.0  0.06399  0.37419  0.64322  1.0000
  C   C182      1.0  0.05407  0.40598  0.71691  1.0000
  C  Sn44      1.0  0.06831  0.41863  0.83313  1.0000
  O  Te41      1.0  0.10759  0.41120  0.99242  1.0000
  O  Te42      1.0  0.09900  0.32277  0.61469  1.0000
  O  Te43      1.0  0.04940  0.36203  0.52730  1.0000
  O  Te44      1.0  0.05800  0.45048  0.90508  1.0000
  Mg  Mg21      1.0  0.07176  0.31721  0.46332  1.0000
  Mg  Mg22      1.0  0.17036  0.45862  0.05638  1.0000
  C  Sn45      1.0  0.59621  0.90300  0.86811  1.0000
  C   C183      1.0  0.60689  0.87115  0.79642  1.0000
  C  Sn46      1.0  0.59255  0.85738  0.68314  1.0000
  C  Sn47      1.0  0.56703  0.87582  0.64052  1.0000
  C   C184      1.0  0.55637  0.90765  0.71217  1.0000
  C  Sn48      1.0  0.57069  0.92145  0.82549  1.0000
  O  Te45      1.0  0.61089  0.91628  0.98105  1.0000
  O  Te46      1.0  0.60363  0.82549  0.61315  1.0000
  O  Te47      1.0  0.55235  0.86251  0.52749  1.0000
  O  Te48      1.0  0.55963  0.95332  0.89543  1.0000
  Mg  Mg23      1.0  0.57593  0.81814  0.46544  1.0000
  Mg  Mg24      1.0  0.67245  0.96326  0.04307  1.0000
  C  Sn49      1.0  0.88462  0.40699  0.94684  1.0000
  C   C185      1.0  0.92209  0.40330  0.83990  1.0000
  C  Sn50      1.0  0.93458  0.38129  0.69433  1.0000
  C  Sn51      1.0  0.90908  0.36260  0.65473  1.0000
  C   C186      1.0  0.87163  0.36629  0.76161  1.0000
  C  Sn52      1.0  0.85912  0.38829  0.90724  1.0000
  O  Te49      1.0  0.95787  0.43169  0.09170  1.0000
  O  Te50      1.0  0.97218  0.37802  0.58939  1.0000
  O  Te51      1.0  0.92099  0.34044  0.50974  1.0000
  O  Te52      1.0  0.90667  0.39413  0.01212  1.0000
  Mg  Mg25      1.0  0.97492  0.34467  0.40641  1.0000
  Mg  Mg26      1.0  0.90390  0.42748  0.19507  1.0000
  C  Sn53      1.0  0.36902  0.90421  0.85804  1.0000
  C   C187      1.0  0.37176  0.87406  0.76845  1.0000
  C  Sn54      1.0  0.40519  0.85732  0.69006  1.0000
  C  Sn55      1.0  0.43654  0.87100  0.70155  1.0000
  C   C188      1.0  0.43379  0.90113  0.79111  1.0000
  C  Sn56      1.0  0.40037  0.91788  0.86952  1.0000
  O  Te53      1.0  0.33532  0.92051  0.93542  1.0000
  O  Te54      1.0  0.40725  0.82722  0.60115  1.0000
  O  Te55      1.0  0.47026  0.85467  0.62406  1.0000
  O  Te56      1.0  0.39830  0.94796  0.95841  1.0000
  Mg  Mg27      1.0  0.45925  0.81436  0.51742  1.0000
  Mg  Mg28      1.0  0.43144  0.96339  0.04227  1.0000
  C  Sn57      1.0  0.07956  0.58155  0.88859  1.0000
  C   C189      1.0  0.05277  0.59059  0.82983  1.0000
  C  Sn58      1.0  0.05790  0.61837  0.71553  1.0000
  C  Sn59      1.0  0.09050  0.63752  0.65867  1.0000
  C   C190      1.0  0.11727  0.62848  0.71739  1.0000
  C  Sn60      1.0  0.11216  0.60070  0.83173  1.0000
  O  Te57      1.0  0.15897  0.55624  0.00283  1.0000
  O  Te58      1.0  0.03073  0.62692  0.65862  1.0000
  O  Te59      1.0  0.09620  0.66541  0.54434  1.0000
  O  Te60      1.0  0.13931  0.59215  0.88860  1.0000
  Mg  Mg29      1.0  0.05118  0.66702  0.50336  1.0000
  Mg  Mg30      1.0  0.20402  0.55460  0.04378  1.0000
  C  Sn61      1.0  0.57307  0.14491  0.73639  1.0000
  C   C191      1.0  0.60008  0.13638  0.79450  1.0000
  C  Sn62      1.0  0.60597  0.10295  0.82626  1.0000
  C  Sn63      1.0  0.58443  0.07751  0.79928  1.0000
  C   C192      1.0  0.55744  0.08605  0.74118  1.0000
  C  Sn64      1.0  0.55152  0.11948  0.70941  1.0000
  O  Te61      1.0  0.56765  0.17850  0.70546  1.0000
  O  Te62      1.0  0.63313  0.09504  0.88435  1.0000
  O  Te63      1.0  0.58986  0.04391  0.83026  1.0000
  O  Te64      1.0  0.52438  0.12739  0.65132  1.0000
  Mg  Mg31      1.0  0.63016  0.04569  0.90822  1.0000
  Mg  Mg32      1.0  0.52735  0.17672  0.62733  1.0000
