data_image0
_chemical_formula_structural       C50H22O8N8C8H10C56H24O8N8C8H12C2Sn2C2HTe2HMgC2Sn2C2HTe2HMgC2Sn2C2HTe2HMgC2Sn2C2HTe2HMgC2Sn2C2HTe2HMgC2Sn2C2HTe2HMgC2Sn2C2HTe2HMgC2Sn2C2HTe2HMgC2Sn2C2HTe2HMgC2Sn2C2HTe2HMgC2Sn2C2HTe2HMgC2Sn2C2HTe2HMgC2Sn2C2HTe2HMgC2Sn2C2HTe2HMgC2Sn2C2HTe2HMgC2Sn2C2HTe2HMgC2Sn2C2HTe2HMg
_chemical_formula_sum              "C190 H102 O16 N16 Sn34 Te34 Mg17"
_cell_length_a       33.9465
_cell_length_b       34.8211
_cell_length_c       10.855
_cell_angle_alpha    85.0198
_cell_angle_beta     89.4342
_cell_angle_gamma    89.7783

_symmetry_space_group_name_H-M    'P1'
_space_group_IT_number       1

loop_
  _space_group_symop_operation_xyz
  'x, y, z'

loop_
  _atom_site_type_symbol
  _atom_site_label
  _atom_site_symmetry_multiplicity
  _atom_site_fract_x
  _atom_site_fract_y
  _atom_site_fract_z
  _atom_site_occupancy
  C   C1        1.0  0.46196  0.96139  0.99057  1.0000
  C   C2        1.0  0.96436  0.46022  0.01024  1.0000
  C   C3        1.0  0.53908  0.03968  0.00138  1.0000
  C   C4        1.0  0.03591  0.54321  0.01242  1.0000
  C   C5        1.0  0.46598  0.04359  0.00042  1.0000
  C   C6        1.0  0.96283  0.54280  0.00859  1.0000
  C   C7        1.0  0.53498  0.95785  0.00357  1.0000
  C   C8        1.0  0.03756  0.46142  0.01163  1.0000
  C   C9        1.0  0.42956  0.02444  0.98316  1.0000
  C   C10       1.0  0.92759  0.52102  0.99604  1.0000
  C   C11       1.0  0.57192  0.97755  0.99586  1.0000
  C   C12       1.0  0.07302  0.48354  0.00414  1.0000
  C   C13       1.0  0.42778  0.98543  0.97558  1.0000
  C   C14       1.0  0.92829  0.48165  0.99819  1.0000
  C   C15       1.0  0.57383  0.01677  0.99277  1.0000
  C   C16       1.0  0.07231  0.52266  0.00558  1.0000
  C   C17       1.0  0.46818  0.08416  0.00697  1.0000
  C   C18       1.0  0.96274  0.58355  0.01281  1.0000
  C   C19       1.0  0.53268  0.91707  0.00932  1.0000
  C   C20       1.0  0.03824  0.42064  0.01402  1.0000
  C   C21       1.0  0.46052  0.92047  0.99118  1.0000
  C   C22       1.0  0.96589  0.41938  0.01397  1.0000
  C   C23       1.0  0.54046  0.08034  0.00383  1.0000
  C   C24       1.0  0.03497  0.58376  0.01591  1.0000
  C   C25       1.0  0.32912  0.17945  0.03667  1.0000
  C   C26       1.0  0.81832  0.67148  0.02395  1.0000
  C   C27       1.0  0.67226  0.82323  0.06555  1.0000
  C   C28       1.0  0.18386  0.33454  0.02615  1.0000
  C   C29       1.0  0.32306  0.82413  0.98083  1.0000
  C   C30       1.0  0.82755  0.32281  0.04941  1.0000
  C   C31       1.0  0.67915  0.17370  0.01607  1.0000
  C   C32       1.0  0.17666  0.67277  0.05122  1.0000
  C   C33       1.0  0.29300  0.76487  0.95094  1.0000
  C   C34       1.0  0.22700  0.71323  0.96260  1.0000
  C   C35       1.0  0.77727  0.72295  0.95995  1.0000
  C   C36       1.0  0.28970  0.23386  0.96682  1.0000
  C   C37       1.0  0.22730  0.28938  0.95226  1.0000
  C   C38       1.0  0.71316  0.77446  0.98792  1.0000
  C   C39       1.0  0.28848  0.73681  0.86475  1.0000
  C   C40       1.0  0.25606  0.71254  0.86803  1.0000
  C   C41       1.0  0.74544  0.72444  0.87617  1.0000
  C   C42       1.0  0.29050  0.26719  0.88148  1.0000
  C   C43       1.0  0.25945  0.29316  0.86928  1.0000
  C   C44       1.0  0.71391  0.74907  0.89225  1.0000
  C   C45       1.0  0.23262  0.73881  0.05564  1.0000
  C   C46       1.0  0.26520  0.76361  0.04996  1.0000
  C   C47       1.0  0.74574  0.77338  0.07037  1.0000
  C   C48       1.0  0.22645  0.25725  0.04095  1.0000
  C   C49       1.0  0.25653  0.22928  0.04762  1.0000
  C   C50       1.0  0.77719  0.74765  0.05684  1.0000
  H   H1        1.0  0.40301  0.04191  0.97247  1.0000
  H   H2        1.0  0.89973  0.53634  0.98399  1.0000
  H   H3        1.0  0.59881  0.96086  0.98860  1.0000
  H   H4        1.0  0.10088  0.46847  0.99635  1.0000
  H   H5        1.0  0.39974  0.97223  0.95753  1.0000
  H   H6        1.0  0.90110  0.46591  0.98783  1.0000
  H   H7        1.0  0.60216  0.03113  0.98267  1.0000
  H   H8        1.0  0.09957  0.53901  0.99879  1.0000
  H   H9        1.0  0.30898  0.17033  0.11223  1.0000
  H   H10       1.0  0.79771  0.66332  0.10014  1.0000
  H   H11       1.0  0.69053  0.82739  0.14535  1.0000
  H   H12       1.0  0.20103  0.33509  0.11099  1.0000
  H   H13       1.0  0.29624  0.83456  0.02491  1.0000
  H   H14       1.0  0.81240  0.32159  0.13885  1.0000
  H   H15       1.0  0.70330  0.15996  0.06996  1.0000
  H   H16       1.0  0.18803  0.67445  0.14427  1.0000
  H   H17       1.0  0.31077  0.73485  0.79265  1.0000
  H   H18       1.0  0.25213  0.69219  0.79779  1.0000
  H   H19       1.0  0.74722  0.70715  0.79760  1.0000
  H   H20       1.0  0.31551  0.26971  0.81835  1.0000
  H   H21       1.0  0.26041  0.31741  0.79894  1.0000
  H   H22       1.0  0.68989  0.75206  0.82661  1.0000
  O   O1        1.0  0.73592  0.20835  0.18355  1.0000
  O   O2        1.0  0.20576  0.74035  0.15089  1.0000
  O   O3        1.0  0.26833  0.78569  0.15046  1.0000
  O   O4        1.0  0.79084  0.25984  0.18315  1.0000
  O   O5        1.0  0.74596  0.79651  0.16587  1.0000
  O   O6        1.0  0.19454  0.24906  0.12044  1.0000
  O   O7        1.0  0.25414  0.19854  0.13596  1.0000
  O   O8        1.0  0.80757  0.74867  0.14078  1.0000
  N   N1        1.0  0.32256  0.20980  0.96085  1.0000
  N   N2        1.0  0.81051  0.69963  0.94251  1.0000
  N   N3        1.0  0.68016  0.79822  0.98636  1.0000
  N   N4        1.0  0.19488  0.31429  0.93792  1.0000
  N   N5        1.0  0.32475  0.79057  0.93609  1.0000
  N   N6        1.0  0.81491  0.30494  0.95759  1.0000
  N   N7        1.0  0.68196  0.20811  0.95934  1.0000
  N   N8        1.0  0.19394  0.68978  0.95481  1.0000
  C   C51       1.0  0.50527  0.10139  0.00632  1.0000
  C   C52       1.0  0.99878  0.60307  0.01492  1.0000
  C   C53       1.0  0.49590  0.89954  0.00145  1.0000
  C   C54       1.0  0.00253  0.40070  0.01374  1.0000
  C   C55       1.0  0.49938  0.98005  0.99919  1.0000
  C   C56       1.0  0.00047  0.48128  0.01105  1.0000
  C   C57       1.0  0.50147  0.02112  0.00088  1.0000
  C   C58       1.0  0.99967  0.52240  0.01088  1.0000
  H   H23       1.0  0.50693  0.13233  0.01305  1.0000
  H   H24       1.0  0.99887  0.63408  0.02183  1.0000
  H   H25       1.0  0.49423  0.86823  0.00899  1.0000
  H   H26       1.0  0.00307  0.36934  0.01952  1.0000
  H   H27       1.0  0.29629  0.79226  0.15720  1.0000
  H   H28       1.0  0.21811  0.75539  0.21138  1.0000
  H   H29       1.0  0.23328  0.20360  0.19585  1.0000
  H   H30       1.0  0.82876  0.73204  0.11653  1.0000
  H   H31       1.0  0.76641  0.78599  0.22238  1.0000
  H   H32       1.0  0.17334  0.26665  0.09825  1.0000
  C   C59       1.0  0.46142  0.95843  0.50256  1.0000
  C   C60       1.0  0.96317  0.45707  0.49167  1.0000
  C   C61       1.0  0.53755  0.03850  0.49759  1.0000
  C   C62       1.0  0.03506  0.54027  0.49408  1.0000
  C   C63       1.0  0.46434  0.04090  0.49920  1.0000
  C   C64       1.0  0.96197  0.53921  0.48972  1.0000
  C   C65       1.0  0.53464  0.95599  0.51148  1.0000
  C   C66       1.0  0.03636  0.45778  0.49260  1.0000
  C   C67       1.0  0.42829  0.02107  0.48337  1.0000
  C   C68       1.0  0.92644  0.51756  0.48106  1.0000
  C   C69       1.0  0.57109  0.97634  0.49628  1.0000
  C   C70       1.0  0.07185  0.48001  0.48921  1.0000
  C   C71       1.0  0.42694  0.98185  0.48375  1.0000
  C   C72       1.0  0.92696  0.47828  0.48315  1.0000
  C   C73       1.0  0.57236  0.01572  0.48636  1.0000
  C   C74       1.0  0.07125  0.51927  0.49009  1.0000
  C   C75       1.0  0.46586  0.08156  0.50365  1.0000
  C   C76       1.0  0.96191  0.57990  0.49127  1.0000
  C   C77       1.0  0.53295  0.91512  0.51922  1.0000
  C   C78       1.0  0.03663  0.41687  0.49327  1.0000
  C   C79       1.0  0.46037  0.91740  0.50810  1.0000
  C   C80       1.0  0.96413  0.41619  0.49521  1.0000
  C   C81       1.0  0.53836  0.07945  0.49758  1.0000
  C   C82       1.0  0.03407  0.58104  0.49561  1.0000
  C   C83       1.0  0.32472  0.17397  0.50364  1.0000
  C   C84       1.0  0.81616  0.66414  0.50649  1.0000
  C   C85       1.0  0.67072  0.81758  0.54167  1.0000
  C   C86       1.0  0.18246  0.33097  0.52489  1.0000
  C   C87       1.0  0.32241  0.82073  0.49552  1.0000
  C   C88       1.0  0.81869  0.33028  0.53224  1.0000
  C   C89       1.0  0.67514  0.17797  0.47996  1.0000
  C   C90       1.0  0.17690  0.66740  0.55124  1.0000
  C   C91       1.0  0.77129  0.29105  0.45193  1.0000
  C   C92       1.0  0.29246  0.76089  0.47095  1.0000
  C   C93       1.0  0.22702  0.70913  0.46861  1.0000
  C   C94       1.0  0.70621  0.23851  0.45594  1.0000
  C   C95       1.0  0.77442  0.71556  0.44593  1.0000
  C   C96       1.0  0.29049  0.23208  0.45244  1.0000
  C   C97       1.0  0.22672  0.28588  0.44792  1.0000
  C   C98       1.0  0.70975  0.76752  0.46804  1.0000
  C   C99       1.0  0.73720  0.29988  0.38078  1.0000
  C   C100      1.0  0.29142  0.73091  0.39011  1.0000
  C   C101      1.0  0.25905  0.70682  0.38536  1.0000
  C   C102      1.0  0.70528  0.27482  0.38469  1.0000
  C   C103      1.0  0.74494  0.71923  0.35558  1.0000
  C   C104      1.0  0.28080  0.25498  0.34347  1.0000
  C   C105      1.0  0.24811  0.27912  0.34015  1.0000
  C   C106      1.0  0.71287  0.74317  0.37072  1.0000
  C   C107      1.0  0.74023  0.23009  0.53105  1.0000
  C   C108      1.0  0.22856  0.73752  0.55509  1.0000
  C   C109      1.0  0.26001  0.76377  0.55412  1.0000
  C   C110      1.0  0.77228  0.25554  0.52800  1.0000
  C   C111      1.0  0.74055  0.76455  0.55642  1.0000
  C   C112      1.0  0.23817  0.26453  0.55861  1.0000
  C   C113      1.0  0.26788  0.23629  0.55977  1.0000
  C   C114      1.0  0.77189  0.73831  0.54650  1.0000
  H   H33       1.0  0.40156  0.03795  0.46778  1.0000
  H   H34       1.0  0.89850  0.53286  0.47298  1.0000
  H   H35       1.0  0.59804  0.95965  0.48947  1.0000
  H   H36       1.0  0.09992  0.46514  0.48431  1.0000
  H   H37       1.0  0.39912  0.96817  0.46656  1.0000
  H   H38       1.0  0.89965  0.46241  0.47597  1.0000
  H   H39       1.0  0.60037  0.03009  0.46721  1.0000
  H   H40       1.0  0.09862  0.53544  0.48730  1.0000
  H   H41       1.0  0.29928  0.16017  0.55256  1.0000
  H   H42       1.0  0.79530  0.65383  0.57970  1.0000
  H   H43       1.0  0.68992  0.82068  0.62021  1.0000
  H   H44       1.0  0.19967  0.33326  0.60830  1.0000
  H   H45       1.0  0.29471  0.83413  0.52533  1.0000
  H   H46       1.0  0.80284  0.32921  0.62047  1.0000
  H   H47       1.0  0.70231  0.16319  0.51200  1.0000
  H   H48       1.0  0.18829  0.66801  0.64479  1.0000
  H   H49       1.0  0.73591  0.32670  0.32074  1.0000
  H   H50       1.0  0.31657  0.72709  0.32822  1.0000
  H   H51       1.0  0.25823  0.68464  0.31948  1.0000
  H   H52       1.0  0.67887  0.28282  0.33095  1.0000
  H   H53       1.0  0.74734  0.70179  0.27718  1.0000
  H   H54       1.0  0.29788  0.25016  0.26125  1.0000
  H   H55       1.0  0.23791  0.29333  0.25396  1.0000
  H   H56       1.0  0.69065  0.74728  0.29968  1.0000
  O   O9        1.0  0.74613  0.19626  0.61144  1.0000
  O   O10       1.0  0.19770  0.73997  0.63762  1.0000
  O   O11       1.0  0.25684  0.79097  0.64072  1.0000
  O   O12       1.0  0.80449  0.24596  0.59973  1.0000
  O   O13       1.0  0.74035  0.78596  0.65569  1.0000
  O   O14       1.0  0.21697  0.26922  0.66343  1.0000
  O   O15       1.0  0.27419  0.21494  0.67135  1.0000
  O   O16       1.0  0.80034  0.73903  0.63673  1.0000
  N   N9        1.0  0.32358  0.20857  0.44866  1.0000
  N   N10       1.0  0.80829  0.69341  0.42935  1.0000
  N   N11       1.0  0.67715  0.79231  0.46272  1.0000
  N   N12       1.0  0.19382  0.31029  0.43729  1.0000
  N   N13       1.0  0.32508  0.78553  0.46337  1.0000
  N   N14       1.0  0.80456  0.31455  0.43835  1.0000
  N   N15       1.0  0.67319  0.21490  0.44622  1.0000
  N   N16       1.0  0.19443  0.68524  0.45693  1.0000
  C   C115      1.0  0.50253  0.09947  0.50315  1.0000
  C   C116      1.0  0.99763  0.59993  0.49074  1.0000
  C   C117      1.0  0.49626  0.89708  0.51643  1.0000
  C   C118      1.0  0.00062  0.39721  0.49247  1.0000
  C   C119      1.0  0.49868  0.97774  0.50670  1.0000
  C   C120      1.0  0.99948  0.47802  0.49096  1.0000
  C   C121      1.0  0.50022  0.01903  0.50275  1.0000
  C   C122      1.0  0.99890  0.51920  0.49100  1.0000
  H   H57       1.0  0.50327  0.13041  0.51084  1.0000
  H   H58       1.0  0.99690  0.63105  0.49454  1.0000
  H   H59       1.0  0.49582  0.86571  0.52425  1.0000
  H   H60       1.0  0.00108  0.36585  0.49692  1.0000
  H   H61       1.0  0.28396  0.79739  0.66221  1.0000
  H   H62       1.0  0.79761  0.22232  0.65144  1.0000
  H   H63       1.0  0.72385  0.19420  0.66848  1.0000
  H   H64       1.0  0.20623  0.75687  0.70041  1.0000
  H   H65       1.0  0.30173  0.20651  0.67389  1.0000
  H   H66       1.0  0.82475  0.72654  0.61157  1.0000
  H   H67       1.0  0.75937  0.77451  0.71402  1.0000
  H   H68       1.0  0.23041  0.25466  0.73206  1.0000
  C   C123      1.0  0.40505  0.16434  0.92619  1.0000
  C   C124      1.0  0.37449  0.18540  0.00062  1.0000
  C  Sn1       1.0  0.37264  0.15411  0.09019  1.0000
  C  Sn2       1.0  0.40509  0.12839  0.10533  1.0000
  C   C125      1.0  0.43860  0.13465  0.03046  1.0000
  C   C126      1.0  0.43708  0.13900  0.94109  1.0000
  H   H69       1.0  0.40626  0.18865  0.85708  1.0000
  O  Te1       1.0  0.33882  0.14854  0.16374  1.0000
  O  Te2       1.0  0.40403  0.09689  0.19417  1.0000
  H   H70       1.0  0.46313  0.14364  0.88353  1.0000
  Mg  Mg1       1.0  0.35142  0.10146  0.27206  1.0000
  C   C127      1.0  0.86726  0.60944  0.12114  1.0000
  C   C128      1.0  0.85672  0.64291  0.04835  1.0000
  C  Sn3       1.0  0.87816  0.63039  0.95123  1.0000
  C  Sn4       1.0  0.91384  0.61098  0.92672  1.0000
  C   C129      1.0  0.92716  0.60455  0.00001  1.0000
  C   C130      1.0  0.90244  0.59027  0.09699  1.0000
  H   H71       1.0  0.84812  0.59838  0.19613  1.0000
  O  Te3       1.0  0.86719  0.66387  0.87945  1.0000
  O  Te4       1.0  0.93886  0.62486  0.83020  1.0000
  H   H72       1.0  0.91059  0.56434  0.15328  1.0000
  Mg  Mg2       1.0  0.91109  0.67153  0.75834  1.0000
  C   C131      1.0  0.58349  0.85832  0.92594  1.0000
  C   C132      1.0  0.57161  0.91167  0.00483  1.0000
  C  Sn5       1.0  0.59288  0.92020  0.10853  1.0000
  C  Sn6       1.0  0.62977  0.90201  0.13345  1.0000
  C   C133      1.0  0.64446  0.87576  0.05391  1.0000
  C   C134      1.0  0.61988  0.84038  0.95043  1.0000
  H   H73       1.0  0.56684  0.85189  0.84584  1.0000
  O  Te5       1.0  0.57752  0.94653  0.18641  1.0000
  O  Te6       1.0  0.65164  0.91001  0.23642  1.0000
  H   H74       1.0  0.63146  0.82004  0.88932  1.0000
  Mg  Mg3       1.0  0.61832  0.94796  0.31514  1.0000
  C   C135      1.0  0.09172  0.36780  0.90828  1.0000
  C   C136      1.0  0.07629  0.39074  0.99668  1.0000
  C  Sn7       1.0  0.10173  0.42550  0.09894  1.0000
  C  Sn8       1.0  0.14028  0.40992  0.11269  1.0000
  C   C137      1.0  0.15546  0.38703  0.02369  1.0000
  C   C138      1.0  0.12975  0.35244  0.92174  1.0000
  H   H75       1.0  0.07420  0.36198  0.82936  1.0000
  O  Te7       1.0  0.08586  0.44846  0.18641  1.0000
  O  Te8       1.0  0.16330  0.41718  0.21397  1.0000
  H   H76       1.0  0.14171  0.33470  0.85327  1.0000
  Mg  Mg4       1.0  0.12868  0.45014  0.30845  1.0000
  C   C139      1.0  0.41833  0.85829  0.89693  1.0000
  C   C140      1.0  0.42318  0.89184  0.95699  1.0000
  C  Sn9       1.0  0.39651  0.93124  0.03442  1.0000
  C  Sn10      1.0  0.36131  0.90952  0.05190  1.0000
  C   C141      1.0  0.35370  0.84893  0.99147  1.0000
  C   C142      1.0  0.38362  0.83685  0.91416  1.0000
  H   H77       1.0  0.44149  0.84893  0.83717  1.0000
  O  Te9       1.0  0.40184  0.96483  0.09368  1.0000
  O  Te10      1.0  0.33114  0.92120  0.12882  1.0000
  H   H78       1.0  0.37987  0.81086  0.86774  1.0000
  Mg  Mg5       1.0  0.35224  0.96898  0.18931  1.0000
  C   C143      1.0  0.89397  0.39338  0.13727  1.0000
  C   C144      1.0  0.92454  0.39512  0.04981  1.0000
  C  Sn11      1.0  0.92039  0.34519  0.95036  1.0000
  C  Sn12      1.0  0.88804  0.32014  0.93847  1.0000
  C   C145      1.0  0.86064  0.34568  0.02641  1.0000
  C   C146      1.0  0.86204  0.36869  0.12559  1.0000
  H   H79       1.0  0.89504  0.41120  0.21397  1.0000
  O  Te11      1.0  0.95118  0.34727  0.86384  1.0000
  O  Te12      1.0  0.88619  0.29696  0.83996  1.0000
  H   H80       1.0  0.83836  0.36736  0.19324  1.0000
  Mg  Mg6       1.0  0.93529  0.31001  0.74581  1.0000
  C   C147      1.0  0.63528  0.10804  0.10407  1.0000
  C   C148      1.0  0.64615  0.13944  0.02200  1.0000
  C  Sn13      1.0  0.61729  0.12672  0.92948  1.0000
  C  Sn14      1.0  0.57992  0.10923  0.91919  1.0000
  C   C149      1.0  0.57236  0.10490  0.00181  1.0000
  C   C150      1.0  0.59841  0.09079  0.09402  1.0000
  H   H81       1.0  0.65542  0.09713  0.17546  1.0000
  O  Te13      1.0  0.62863  0.15810  0.84822  1.0000
  O  Te14      1.0  0.55355  0.12298  0.82761  1.0000
  H   H82       1.0  0.58998  0.06649  0.15760  1.0000
  Mg  Mg7       1.0  0.58248  0.16641  0.73879  1.0000
  C   C151      1.0  0.12248  0.61572  0.15291  1.0000
  C   C152      1.0  0.13962  0.64249  0.06520  1.0000
  C  Sn15      1.0  0.11823  0.62479  0.95183  1.0000
  C  Sn16      1.0  0.08207  0.60697  0.92606  1.0000
  C   C153      1.0  0.06820  0.60730  0.01445  1.0000
  C   C154      1.0  0.08681  0.59814  0.12759  1.0000
  H   H83       1.0  0.13686  0.60865  0.24048  1.0000
  O  Te15      1.0  0.13576  0.65159  0.86522  1.0000
  O  Te16      1.0  0.06311  0.61580  0.81351  1.0000
  H   H84       1.0  0.07352  0.57743  0.19551  1.0000
  Mg  Mg8       1.0  0.09862  0.65411  0.72515  1.0000
  C   C155      1.0  0.75097  0.27526  0.84078  1.0000
  C   C156      1.0  0.77404  0.27878  0.94509  1.0000
  C  Sn17      1.0  0.76808  0.28446  0.05667  1.0000
  C  Sn18      1.0  0.73536  0.25912  0.06365  1.0000
  C   C157      1.0  0.70942  0.22873  0.95875  1.0000
  C   C158      1.0  0.71869  0.25026  0.84757  1.0000
  H   H85       1.0  0.75815  0.29190  0.75474  1.0000
  O  Te17      1.0  0.79144  0.28834  0.16001  1.0000
  O  Te18      1.0  0.72570  0.23741  0.17399  1.0000
  H   H86       1.0  0.70084  0.24751  0.76681  1.0000
  Mg  Mg9       1.0  0.76641  0.25265  0.28953  1.0000
  C   C159      1.0  0.36907  0.10855  0.59444  1.0000
  C   C160      1.0  0.36092  0.14336  0.52528  1.0000
  C  Sn19      1.0  0.38844  0.15939  0.43927  1.0000
  C  Sn20      1.0  0.42475  0.14014  0.42238  1.0000
  C   C161      1.0  0.43261  0.10532  0.49196  1.0000
  C   C162      1.0  0.40488  0.08954  0.57780  1.0000
  H   H87       1.0  0.34760  0.09632  0.66081  1.0000
  O  Te19      1.0  0.37983  0.19420  0.37097  1.0000
  O  Te20      1.0  0.45277  0.15552  0.33701  1.0000
  H   H88       1.0  0.41118  0.06257  0.63128  1.0000
  Mg  Mg10      1.0  0.42743  0.20363  0.26590  1.0000
  C   C163      1.0  0.90944  0.63859  0.38802  1.0000
  C   C164      1.0  0.92440  0.61085  0.47621  1.0000
  C  Sn21      1.0  0.90185  0.59828  0.58021  1.0000
  C  Sn22      1.0  0.86361  0.61383  0.59595  1.0000
  C   C165      1.0  0.84890  0.64155  0.50715  1.0000
  C   C166      1.0  0.87173  0.65393  0.40344  1.0000
  H   H89       1.0  0.92709  0.64816  0.30774  1.0000
  O  Te21      1.0  0.91726  0.57056  0.66745  1.0000
  O  Te22      1.0  0.84044  0.60177  0.69901  1.0000
  H   H90       1.0  0.86012  0.67539  0.33514  1.0000
  Mg  Mg11      1.0  0.87439  0.56336  0.79237  1.0000
  C   C167      1.0  0.62497  0.87728  0.63386  1.0000
  C   C168      1.0  0.63463  0.84805  0.55828  1.0000
  C  Sn23      1.0  0.61104  0.84157  0.45744  1.0000
  C  Sn24      1.0  0.57719  0.86483  0.43200  1.0000
  C   C169      1.0  0.56780  0.89401  0.50811  1.0000
  C   C170      1.0  0.59160  0.90024  0.60880  1.0000
  H   H91       1.0  0.64340  0.88211  0.71173  1.0000
  O  Te23      1.0  0.62110  0.81224  0.38290  1.0000
  O  Te24      1.0  0.55311  0.85898  0.33179  1.0000
  H   H92       1.0  0.58413  0.92289  0.66725  1.0000
  Mg  Mg12      1.0  0.57906  0.81543  0.25716  1.0000
  C   C171      1.0  0.12911  0.38515  0.61828  1.0000
  C   C172      1.0  0.14281  0.35699  0.54406  1.0000
  C  Sn25      1.0  0.12171  0.34860  0.43988  1.0000
  C  Sn26      1.0  0.08626  0.36883  0.40967  1.0000
  C   C173      1.0  0.07282  0.39697  0.48447  1.0000
  C   C174      1.0  0.09416  0.40513  0.58852  1.0000
  H   H93       1.0  0.14563  0.39147  0.69875  1.0000
  O  Te25      1.0  0.13580  0.32037  0.36676  1.0000
  O  Te26      1.0  0.06460  0.36103  0.30606  1.0000
  H   H94       1.0  0.08356  0.42695  0.64592  1.0000
  Mg  Mg13      1.0  0.09585  0.32003  0.23508  1.0000
  C   C175      1.0  0.40132  0.84140  0.41438  1.0000
  C   C176      1.0  0.36628  0.84170  0.48300  1.0000
  C  Sn27      1.0  0.35867  0.87130  0.55905  1.0000
  C  Sn28      1.0  0.38670  0.90111  0.56634  1.0000
  C   C177      1.0  0.42165  0.90057  0.49726  1.0000
  C   C178      1.0  0.42897  0.87081  0.42148  1.0000
  H   H95       1.0  0.40698  0.81839  0.35569  1.0000
  O  Te27      1.0  0.32353  0.87115  0.62701  1.0000
  O  Te28      1.0  0.37984  0.93105  0.64158  1.0000
  H   H96       1.0  0.45609  0.87060  0.36830  1.0000
  Mg  Mg14      1.0  0.32760  0.91817  0.71644  1.0000
  C   C179      1.0  0.91112  0.36064  0.40402  1.0000
  C   C180      1.0  0.92409  0.38877  0.47843  1.0000
  C  Sn29      1.0  0.90304  0.39606  0.58522  1.0000
  C  Sn30      1.0  0.86839  0.37474  0.61790  1.0000
  C   C181      1.0  0.85568  0.34665  0.54289  1.0000
  C   C182      1.0  0.87696  0.33959  0.43622  1.0000
  H   H97       1.0  0.92760  0.35517  0.32152  1.0000
  O  Te29      1.0  0.91639  0.42427  0.65850  1.0000
  O  Te30      1.0  0.84680  0.38143  0.72415  1.0000
  H   H98       1.0  0.86693  0.31780  0.37867  1.0000
  Mg  Mg15      1.0  0.87687  0.42287  0.79425  1.0000
  C   C183      1.0  0.62039  0.09354  0.56140  1.0000
  C   C184      1.0  0.58228  0.10091  0.51770  1.0000
  C  Sn31      1.0  0.57398  0.13493  0.44451  1.0000
  C  Sn32      1.0  0.60446  0.16201  0.41464  1.0000
  C   C185      1.0  0.64250  0.15436  0.45874  1.0000
  C   C186      1.0  0.65048  0.12023  0.53194  1.0000
  H   H99       1.0  0.62657  0.06713  0.61798  1.0000
  O  Te31      1.0  0.53574  0.14184  0.40166  1.0000
  O  Te32      1.0  0.59698  0.19623  0.34163  1.0000
  H   H100      1.0  0.67999  0.11453  0.56569  1.0000
  Mg  Mg16      1.0  0.54014  0.19263  0.30523  1.0000
  C   C187      1.0  0.11995  0.61127  0.64520  1.0000
  C   C188      1.0  0.13856  0.63836  0.56186  1.0000
  C  Sn33      1.0  0.12142  0.64954  0.44779  1.0000
  C  Sn34      1.0  0.08496  0.63325  0.41687  1.0000
  C   C189      1.0  0.06655  0.60618  0.50092  1.0000
  C   C190      1.0  0.08397  0.59520  0.61479  1.0000
  H   H101      1.0  0.13341  0.60278  0.73333  1.0000
  O  Te33      1.0  0.14042  0.67663  0.36559  1.0000
  O  Te34      1.0  0.06716  0.64391  0.30352  1.0000
  H   H102      1.0  0.06954  0.57424  0.67933  1.0000
  Mg  Mg17      1.0  0.10449  0.68192  0.22240  1.0000
