data_image0
_chemical_formula_structural       C24H8C8H4N8C32H8O8H16C24H8C8H4N8C32H8O8H16SnCSn2CSnTe4Mg2SnCSn2CSnTe4Mg2SnCSn2CSnTe4Mg2SnCSn2CSnTe4Mg2SnCSn2CSnTe4Mg2SnCSn2CSnTe4Mg2SnCSn2CSnTe4Mg2SnCSn2CSnTe4Mg2SnCSn2CSnTe4Mg2SnCSn2CSnTe4Mg2SnCSn2CSnTe4Mg2SnCSn2CSnTe4Mg2SnCSn2CSnTe4Mg2SnCSn2CSnTe4Mg2SnCSn2CSnTe4Mg2SnCSn2CSnTe4Mg2
_chemical_formula_sum              "C160 H72 N16 O16 Sn64 Te64 Mg32"
_cell_length_a       36.4007
_cell_length_b       33
_cell_length_c       9.36574
_cell_angle_alpha    87.1013
_cell_angle_beta     82.4959
_cell_angle_gamma    89.819

_symmetry_space_group_name_H-M    'P1'
_space_group_IT_number       1

loop_
  _space_group_symop_operation_xyz
  'x, y, z'

loop_
  _atom_site_type_symbol
  _atom_site_label
  _atom_site_symmetry_multiplicity
  _atom_site_fract_x
  _atom_site_fract_y
  _atom_site_fract_z
  _atom_site_occupancy
  C   C1        1.0  0.03969  0.46224  0.28041  1.0000
  C   C2        1.0  0.54077  0.96207  0.24109  1.0000
  C   C3        1.0  0.96052  0.46179  0.28316  1.0000
  C   C4        1.0  0.46124  0.96064  0.25204  1.0000
  C   C5        1.0  0.96009  0.53723  0.27604  1.0000
  C   C6        1.0  0.46043  0.03595  0.25944  1.0000
  C   C7        1.0  0.03912  0.53767  0.27852  1.0000
  C   C8        1.0  0.53927  0.03728  0.25049  1.0000
  C   C9        1.0  0.98106  0.42532  0.29897  1.0000
  C   C10       1.0  0.48275  0.92429  0.24353  1.0000
  C   C11       1.0  0.01877  0.42541  0.29445  1.0000
  C   C12       1.0  0.52064  0.92511  0.23541  1.0000
  C   C13       1.0  0.01793  0.57432  0.28383  1.0000
  C   C14       1.0  0.51817  0.07376  0.25025  1.0000
  C   C15       1.0  0.98026  0.57399  0.28472  1.0000
  C   C16       1.0  0.48051  0.07311  0.25691  1.0000
  C   C17       1.0  0.92201  0.46156  0.26881  1.0000
  C   C18       1.0  0.42182  0.96074  0.26042  1.0000
  C   C19       1.0  0.07925  0.46274  0.26284  1.0000
  C   C20       1.0  0.58001  0.96338  0.23909  1.0000
  C   C21       1.0  0.07858  0.53746  0.26649  1.0000
  C   C22       1.0  0.57840  0.03797  0.24745  1.0000
  C   C23       1.0  0.92140  0.53637  0.26355  1.0000
  C   C24       1.0  0.42115  0.03524  0.26779  1.0000
  H   H1        1.0  0.96622  0.39666  0.31375  1.0000
  H   H2        1.0  0.46841  0.89542  0.24351  1.0000
  H   H3        1.0  0.03335  0.39676  0.29945  1.0000
  H   H4        1.0  0.53595  0.89689  0.22421  1.0000
  H   H5        1.0  0.03221  0.60309  0.28662  1.0000
  H   H6        1.0  0.53244  0.10270  0.24439  1.0000
  H   H7        1.0  0.96514  0.60243  0.29143  1.0000
  H   H8        1.0  0.46526  0.10142  0.26020  1.0000
  C   C25       1.0  0.90385  0.49885  0.25927  1.0000
  C   C26       1.0  0.40304  0.99780  0.27195  1.0000
  C   C27       1.0  0.09741  0.50042  0.25357  1.0000
  C   C28       1.0  0.59753  0.00106  0.24044  1.0000
  C   C29       1.0  0.01958  0.49984  0.28138  1.0000
  C   C30       1.0  0.52023  0.99925  0.24884  1.0000
  C   C31       1.0  0.98002  0.49965  0.28083  1.0000
  C   C32       1.0  0.48059  0.99853  0.25344  1.0000
  H   H9        1.0  0.87502  0.49879  0.23970  1.0000
  H   H10       1.0  0.37312  0.99773  0.27276  1.0000
  H   H11       1.0  0.12756  0.50113  0.24403  1.0000
  H   H12       1.0  0.62730  0.00145  0.24341  1.0000
  N   N1        1.0  0.32861  0.17236  0.19624  1.0000
  N   N2        1.0  0.82996  0.67466  0.17848  1.0000
  N   N3        1.0  0.67131  0.17371  0.30791  1.0000
  N   N4        1.0  0.16750  0.67794  0.30341  1.0000
  N   N5        1.0  0.67712  0.82875  0.29708  1.0000
  N   N6        1.0  0.17682  0.32595  0.26981  1.0000
  N   N7        1.0  0.32791  0.82701  0.18968  1.0000
  N   N8        1.0  0.83190  0.32553  0.18019  1.0000
  C   C33       1.0  0.30210  0.18517  0.28807  1.0000
  C   C34       1.0  0.80491  0.68781  0.27556  1.0000
  C   C35       1.0  0.69785  0.18751  0.21310  1.0000
  C   C36       1.0  0.20136  0.68118  0.24209  1.0000
  C   C37       1.0  0.69332  0.80917  0.19082  1.0000
  C   C38       1.0  0.20693  0.32005  0.18139  1.0000
  C   C39       1.0  0.29619  0.81980  0.26574  1.0000
  C   C40       1.0  0.80688  0.31031  0.27841  1.0000
  C   C41       1.0  0.27790  0.21868  0.25258  1.0000
  C   C42       1.0  0.77809  0.71931  0.24670  1.0000
  C   C43       1.0  0.72434  0.21884  0.23958  1.0000
  C   C44       1.0  0.22439  0.71651  0.25355  1.0000
  C   C45       1.0  0.72080  0.77748  0.21392  1.0000
  C   C46       1.0  0.23081  0.28632  0.20852  1.0000
  C   C47       1.0  0.27333  0.78472  0.24930  1.0000
  C   C48       1.0  0.78079  0.27833  0.25707  1.0000
  C   C49       1.0  0.24429  0.22384  0.34244  1.0000
  C   C50       1.0  0.74661  0.72230  0.35044  1.0000
  C   C51       1.0  0.75650  0.22275  0.13828  1.0000
  C   C52       1.0  0.25984  0.71776  0.17196  1.0000
  C   C53       1.0  0.75200  0.77444  0.11046  1.0000
  C   C54       1.0  0.26419  0.28093  0.11838  1.0000
  C   C55       1.0  0.23820  0.78317  0.33271  1.0000
  C   C56       1.0  0.74915  0.27420  0.36028  1.0000
  C   C57       1.0  0.22093  0.25679  0.32360  1.0000
  C   C58       1.0  0.71842  0.75030  0.33646  1.0000
  C   C59       1.0  0.78426  0.25116  0.14408  1.0000
  C   C60       1.0  0.28358  0.75097  0.16437  1.0000
  C   C61       1.0  0.78043  0.74663  0.12424  1.0000
  C   C62       1.0  0.28725  0.24816  0.13784  1.0000
  C   C63       1.0  0.21371  0.75078  0.33611  1.0000
  C   C64       1.0  0.72127  0.24578  0.35442  1.0000
  H   H13       1.0  0.23627  0.20167  0.43086  1.0000
  H   H14       1.0  0.74467  0.70144  0.44493  1.0000
  H   H15       1.0  0.75937  0.20283  0.04830  1.0000
  H   H16       1.0  0.26884  0.69224  0.10689  1.0000
  H   H17       1.0  0.75397  0.79506  0.01577  1.0000
  H   H18       1.0  0.27238  0.30269  0.02906  1.0000
  H   H19       1.0  0.23045  0.80854  0.40022  1.0000
  H   H20       1.0  0.74706  0.29453  0.44919  1.0000
  O   O1        1.0  0.18933  0.26006  0.41574  1.0000
  O   O2        1.0  0.68748  0.75160  0.43633  1.0000
  O   O3        1.0  0.81461  0.25350  0.04224  1.0000
  O   O4        1.0  0.31660  0.75213  0.07490  1.0000
  O   O5        1.0  0.81028  0.74506  0.02065  1.0000
  O   O6        1.0  0.31941  0.24437  0.04566  1.0000
  O   O7        1.0  0.18021  0.75048  0.42215  1.0000
  O   O8        1.0  0.69055  0.24456  0.45624  1.0000
  H   H21       1.0  0.29695  0.17278  0.40033  1.0000
  H   H22       1.0  0.17645  0.28529  0.37818  1.0000
  H   H23       1.0  0.80195  0.67514  0.38764  1.0000
  H   H24       1.0  0.69194  0.73503  0.52148  1.0000
  H   H25       1.0  0.70180  0.17760  0.10166  1.0000
  H   H26       1.0  0.80896  0.23906  0.95936  1.0000
  H   H27       1.0  0.21482  0.65759  0.17447  1.0000
  H   H28       1.0  0.31707  0.72921  0.01309  1.0000
  H   H29       1.0  0.68737  0.81478  0.07941  1.0000
  H   H30       1.0  0.80373  0.75798  0.93150  1.0000
  H   H31       1.0  0.21456  0.33932  0.08307  1.0000
  H   H32       1.0  0.31815  0.26489  0.96826  1.0000
  H   H33       1.0  0.28439  0.83868  0.35393  1.0000
  H   H34       1.0  0.18043  0.77243  0.48813  1.0000
  H   H35       1.0  0.80368  0.32103  0.38875  1.0000
  H   H36       1.0  0.69742  0.25823  0.53946  1.0000
  C   C65       1.0  0.03958  0.46226  0.71974  1.0000
  C   C66       1.0  0.53809  0.96077  0.74941  1.0000
  C   C67       1.0  0.96042  0.46187  0.72641  1.0000
  C   C68       1.0  0.45850  0.96069  0.75589  1.0000
  C   C69       1.0  0.95985  0.53730  0.72509  1.0000
  C   C70       1.0  0.45869  0.03609  0.75629  1.0000
  C   C71       1.0  0.03908  0.53767  0.72046  1.0000
  C   C72       1.0  0.53797  0.03621  0.75001  1.0000
  C   C73       1.0  0.98159  0.42528  0.71634  1.0000
  C   C74       1.0  0.47962  0.92404  0.75128  1.0000
  C   C75       1.0  0.01935  0.42567  0.71046  1.0000
  C   C76       1.0  0.51743  0.92419  0.74547  1.0000
  C   C77       1.0  0.01828  0.57435  0.71504  1.0000
  C   C78       1.0  0.51720  0.07290  0.74666  1.0000
  C   C79       1.0  0.98056  0.57420  0.71931  1.0000
  C   C80       1.0  0.47943  0.07280  0.75384  1.0000
  C   C81       1.0  0.92097  0.46202  0.74186  1.0000
  C   C82       1.0  0.41906  0.96127  0.75986  1.0000
  C   C83       1.0  0.07833  0.46264  0.73004  1.0000
  C   C84       1.0  0.57731  0.96133  0.74897  1.0000
  C   C85       1.0  0.07792  0.53740  0.72929  1.0000
  C   C86       1.0  0.57726  0.03610  0.74766  1.0000
  C   C87       1.0  0.92034  0.53668  0.73965  1.0000
  C   C88       1.0  0.41943  0.03605  0.76064  1.0000
  H   H37       1.0  0.96738  0.39646  0.71454  1.0000
  H   H38       1.0  0.46521  0.89523  0.75272  1.0000
  H   H39       1.0  0.03463  0.39745  0.69922  1.0000
  H   H40       1.0  0.53225  0.89566  0.73563  1.0000
  H   H41       1.0  0.03292  0.60311  0.71011  1.0000
  H   H42       1.0  0.53193  0.10164  0.73840  1.0000
  H   H43       1.0  0.96574  0.60281  0.72078  1.0000
  H   H44       1.0  0.46447  0.10130  0.75606  1.0000
  C   C89       1.0  0.90215  0.49908  0.75162  1.0000
  C   C90       1.0  0.40087  0.99883  0.76610  1.0000
  C   C91       1.0  0.09610  0.50007  0.73339  1.0000
  C   C92       1.0  0.59540  0.99871  0.74763  1.0000
  C   C93       1.0  0.01963  0.49989  0.71925  1.0000
  C   C94       1.0  0.51815  0.99843  0.75275  1.0000
  C   C95       1.0  0.97999  0.49972  0.72178  1.0000
  C   C96       1.0  0.47842  0.99834  0.75533  1.0000
  H   H45       1.0  0.87202  0.49856  0.76008  1.0000
  H   H46       1.0  0.37101  0.99934  0.76475  1.0000
  H   H47       1.0  0.12511  0.50003  0.75007  1.0000
  H   H48       1.0  0.62503  0.99862  0.75361  1.0000
  N   N9        1.0  0.32783  0.17481  0.68948  1.0000
  N   N10       1.0  0.82426  0.67257  0.69844  1.0000
  N   N11       1.0  0.67352  0.16915  0.80557  1.0000
  N   N12       1.0  0.16827  0.67348  0.81605  1.0000
  N   N13       1.0  0.67132  0.82519  0.80978  1.0000
  N   N14       1.0  0.16914  0.32477  0.82742  1.0000
  N   N15       1.0  0.32591  0.82684  0.68653  1.0000
  N   N16       1.0  0.82640  0.32690  0.69559  1.0000
  C   C97       1.0  0.30277  0.18699  0.78845  1.0000
  C   C98       1.0  0.80195  0.68788  0.79963  1.0000
  C   C99       1.0  0.69675  0.18638  0.70534  1.0000
  C   C100      1.0  0.19409  0.68801  0.71880  1.0000
  C   C101      1.0  0.69280  0.81060  0.70466  1.0000
  C   C102      1.0  0.19352  0.31151  0.72767  1.0000
  C   C103      1.0  0.30223  0.81071  0.78830  1.0000
  C   C104      1.0  0.80349  0.30987  0.79739  1.0000
  C   C105      1.0  0.27590  0.21875  0.76602  1.0000
  C   C106      1.0  0.77459  0.71865  0.76704  1.0000
  C   C107      1.0  0.72357  0.21692  0.73604  1.0000
  C   C108      1.0  0.21997  0.71996  0.74144  1.0000
  C   C109      1.0  0.71838  0.77734  0.72824  1.0000
  C   C110      1.0  0.22053  0.27975  0.74939  1.0000
  C   C111      1.0  0.27520  0.78003  0.76480  1.0000
  C   C112      1.0  0.77779  0.27764  0.77046  1.0000
  C   C113      1.0  0.24563  0.22207  0.87482  1.0000
  C   C114      1.0  0.74166  0.72055  0.86331  1.0000
  C   C115      1.0  0.75689  0.22147  0.64248  1.0000
  C   C116      1.0  0.24891  0.72920  0.62916  1.0000
  C   C117      1.0  0.75080  0.77504  0.62972  1.0000
  C   C118      1.0  0.25069  0.27631  0.63995  1.0000
  C   C119      1.0  0.24582  0.77157  0.87568  1.0000
  C   C120      1.0  0.74446  0.27296  0.86454  1.0000
  C   C121      1.0  0.21829  0.25151  0.86917  1.0000
  C   C122      1.0  0.71352  0.74845  0.84595  1.0000
  C   C123      1.0  0.78408  0.25002  0.65845  1.0000
  C   C124      1.0  0.27611  0.75819  0.63785  1.0000
  C   C125      1.0  0.77848  0.74659  0.64610  1.0000
  C   C126      1.0  0.27772  0.24653  0.64493  1.0000
  C   C127      1.0  0.21851  0.74264  0.86685  1.0000
  C   C128      1.0  0.71820  0.24305  0.85216  1.0000
  H   H49       1.0  0.24403  0.20041  0.96730  1.0000
  H   H50       1.0  0.73836  0.69913  0.95621  1.0000
  H   H51       1.0  0.76122  0.20158  0.55289  1.0000
  H   H52       1.0  0.24976  0.71257  0.53126  1.0000
  H   H53       1.0  0.75411  0.79694  0.53782  1.0000
  H   H54       1.0  0.25266  0.29811  0.54784  1.0000
  H   H55       1.0  0.24455  0.78897  0.97212  1.0000
  H   H56       1.0  0.73941  0.29355  0.95214  1.0000
  O   O9        1.0  0.18891  0.25372  0.97580  1.0000
  O   O10       1.0  0.68145  0.74851  0.94105  1.0000
  O   O11       1.0  0.81725  0.25146  0.56968  1.0000
  O   O12       1.0  0.30426  0.76552  0.52860  1.0000
  O   O13       1.0  0.80946  0.74527  0.54702  1.0000
  O   O14       1.0  0.30653  0.24353  0.53725  1.0000
  O   O15       1.0  0.19022  0.73592  0.97600  1.0000
  O   O16       1.0  0.68697  0.23829  0.94953  1.0000
  H   H57       1.0  0.30018  0.17393  0.89989  1.0000
  H   H58       1.0  0.19357  0.23447  0.05377  1.0000
  H   H59       1.0  0.80226  0.67942  0.91459  1.0000
  H   H60       1.0  0.68663  0.73314  0.02781  1.0000
  H   H61       1.0  0.69684  0.18042  0.59099  1.0000
  H   H62       1.0  0.81638  0.23182  0.49611  1.0000
  H   H63       1.0  0.19827  0.67655  0.60945  1.0000
  H   H64       1.0  0.29779  0.75292  0.44311  1.0000
  H   H65       1.0  0.69329  0.82249  0.59228  1.0000
  H   H66       1.0  0.80518  0.76263  0.46380  1.0000
  H   H67       1.0  0.19497  0.32427  0.61621  1.0000
  H   H68       1.0  0.30128  0.26106  0.45578  1.0000
  H   H69       1.0  0.30172  0.81861  0.90157  1.0000
  H   H70       1.0  0.19705  0.74879  0.06043  1.0000
  H   H71       1.0  0.80226  0.31747  0.91087  1.0000
  H   H72       1.0  0.68890  0.25604  0.02804  1.0000
  C  Sn1       1.0  0.90080  0.36002  0.17785  1.0000
  C   C129      1.0  0.86360  0.35358  0.23301  1.0000
  C  Sn2       1.0  0.84218  0.38526  0.29244  1.0000
  C  Sn3       1.0  0.85826  0.42420  0.29676  1.0000
  C   C130      1.0  0.89543  0.43063  0.24160  1.0000
  C  Sn4       1.0  0.91688  0.39896  0.18217  1.0000
  O  Te1       1.0  0.92169  0.32791  0.11893  1.0000
  O  Te2       1.0  0.80506  0.37809  0.34696  1.0000
  O  Te3       1.0  0.83733  0.45632  0.35575  1.0000
  O  Te4       1.0  0.95397  0.40612  0.12765  1.0000
  Mg  Mg1       1.0  0.78796  0.43151  0.41628  1.0000
  Mg  Mg2       1.0  0.97109  0.35273  0.05824  1.0000
  C  Sn5       1.0  0.39552  0.86370  0.14670  1.0000
  C   C131      1.0  0.36139  0.85447  0.22849  1.0000
  C  Sn6       1.0  0.34338  0.88302  0.31787  1.0000
  C  Sn7       1.0  0.35981  0.92163  0.32561  1.0000
  C   C132      1.0  0.39391  0.93086  0.24384  1.0000
  C  Sn8       1.0  0.41195  0.90231  0.15443  1.0000
  O  Te5       1.0  0.41302  0.83469  0.05807  1.0000
  O  Te6       1.0  0.30929  0.87309  0.39866  1.0000
  O  Te7       1.0  0.34227  0.95065  0.41434  1.0000
  O  Te8       1.0  0.44601  0.91224  0.07367  1.0000
  Mg  Mg3       1.0  0.29622  0.92282  0.50351  1.0000
  Mg  Mg4       1.0  0.42554  0.84830  0.96873  1.0000
  C  Sn9       1.0  0.10797  0.35978  0.34168  1.0000
  C   C133      1.0  0.13991  0.35332  0.24549  1.0000
  C  Sn10      1.0  0.15616  0.38526  0.15576  1.0000
  C  Sn11      1.0  0.14017  0.42448  0.16238  1.0000
  C   C134      1.0  0.10825  0.43092  0.25854  1.0000
  C  Sn12      1.0  0.09198  0.39900  0.34830  1.0000
  O  Te9       1.0  0.09219  0.32741  0.43037  1.0000
  O  Te10      1.0  0.18808  0.37806  0.06044  1.0000
  O  Te11      1.0  0.15597  0.45686  0.07358  1.0000
  O  Te12      1.0  0.06008  0.40619  0.44359  1.0000
  Mg  Mg5       1.0  0.16579  0.41766  0.96164  1.0000
  Mg  Mg6       1.0  0.04880  0.35238  0.54249  1.0000
  C  Sn13      1.0  0.66337  0.90604  0.18104  1.0000
  C   C135      1.0  0.65877  0.87209  0.27715  1.0000
  C  Sn14      1.0  0.62398  0.86263  0.35303  1.0000
  C  Sn15      1.0  0.59314  0.88760  0.33237  1.0000
  C   C136      1.0  0.59774  0.92151  0.23629  1.0000
  C  Sn16      1.0  0.63253  0.93101  0.16037  1.0000
  O  Te13      1.0  0.69840  0.91493  0.10631  1.0000
  O  Te14      1.0  0.62007  0.82854  0.44857  1.0000
  O  Te15      1.0  0.55809  0.87868  0.40720  1.0000
  O  Te16      1.0  0.63644  0.96507  0.06487  1.0000
  Mg  Mg7       1.0  0.56676  0.82899  0.52536  1.0000
  Mg  Mg8       1.0  0.65617  0.95040  0.98797  1.0000
  C  Sn17      1.0  0.08900  0.61702  0.36420  1.0000
  C   C137      1.0  0.09342  0.58655  0.26507  1.0000
  C  Sn18      1.0  0.12684  0.58272  0.17483  1.0000
  C  Sn19      1.0  0.15646  0.60989  0.18390  1.0000
  C   C138      1.0  0.15203  0.64033  0.28299  1.0000
  C  Sn20      1.0  0.11862  0.64419  0.37327  1.0000
  O  Te17      1.0  0.05535  0.62029  0.45336  1.0000
  O  Te18      1.0  0.13060  0.55203  0.07655  1.0000
  O  Te19      1.0  0.19013  0.60660  0.09463  1.0000
  O  Te20      1.0  0.11485  0.67485  0.47152  1.0000
  Mg  Mg9       1.0  0.14824  0.54562  0.97826  1.0000
  Mg  Mg10      1.0  0.06367  0.66704  0.56991  1.0000
  C  Sn21      1.0  0.64590  0.07991  0.18746  1.0000
  C   C139      1.0  0.61099  0.07172  0.26464  1.0000
  C  Sn22      1.0  0.59183  0.10177  0.34361  1.0000
  C  Sn23      1.0  0.60789  0.14081  0.34542  1.0000
  C   C140      1.0  0.64278  0.14898  0.26825  1.0000
  C  Sn24      1.0  0.66196  0.11895  0.18926  1.0000
  O  Te21      1.0  0.66456  0.04942  0.10925  1.0000
  O  Te22      1.0  0.55697  0.09286  0.41997  1.0000
  O  Te23      1.0  0.58920  0.17130  0.42372  1.0000
  O  Te24      1.0  0.69680  0.12784  0.11293  1.0000
  Mg  Mg11      1.0  0.54243  0.14447  0.51034  1.0000
  Mg  Mg12      1.0  0.71136  0.07626  0.02246  1.0000
  C  Sn25      1.0  0.89058  0.62852  0.10011  1.0000
  C   C141      1.0  0.85486  0.63525  0.16928  1.0000
  C  Sn26      1.0  0.84088  0.61171  0.29243  1.0000
  C  Sn27      1.0  0.86309  0.58081  0.34766  1.0000
  C   C142      1.0  0.89879  0.57409  0.27852  1.0000
  C  Sn28      1.0  0.91279  0.59762  0.15534  1.0000
  O  Te25      1.0  0.87042  0.63819  0.97714  1.0000
  O  Te26      1.0  0.80508  0.61900  0.35969  1.0000
  O  Te27      1.0  0.84965  0.55690  0.47073  1.0000
  O  Te28      1.0  0.94857  0.59034  0.08811  1.0000
  Mg  Mg13      1.0  0.79919  0.57844  0.52424  1.0000
  Mg  Mg14      1.0  0.92093  0.61667  0.92361  1.0000
  C  Sn29      1.0  0.35275  0.07488  0.32623  1.0000
  C   C143      1.0  0.38793  0.06840  0.25165  1.0000
  C  Sn30      1.0  0.40715  0.10015  0.17036  1.0000
  C  Sn31      1.0  0.39088  0.13919  0.16352  1.0000
  C   C144      1.0  0.35573  0.14566  0.23808  1.0000
  C  Sn32      1.0  0.33648  0.11393  0.31939  1.0000
  O  Te29      1.0  0.33405  0.04271  0.40684  1.0000
  O  Te30      1.0  0.44228  0.09293  0.09669  1.0000
  O  Te31      1.0  0.40962  0.17137  0.08282  1.0000
  O  Te32      1.0  0.30138  0.12113  0.39304  1.0000
  Mg  Mg15      1.0  0.45679  0.14647  0.00143  1.0000
  Mg  Mg16      1.0  0.28685  0.06762  0.48839  1.0000
  C  Sn33      1.0  0.86617  0.40491  0.87495  1.0000
  C   C145      1.0  0.89754  0.41685  0.77990  1.0000
  C  Sn34      1.0  0.90406  0.40126  0.64299  1.0000
  C  Sn35      1.0  0.87870  0.37319  0.60015  1.0000
  C   C146      1.0  0.84735  0.36128  0.69516  1.0000
  C  Sn36      1.0  0.84081  0.37684  0.83211  1.0000
  O  Te33      1.0  0.89376  0.43512  0.01129  1.0000
  O  Te34      1.0  0.93562  0.41364  0.54987  1.0000
  O  Te35      1.0  0.88469  0.35722  0.46368  1.0000
  O  Te36      1.0  0.80927  0.36449  0.92520  1.0000
  Mg  Mg17      1.0  0.93164  0.38337  0.37528  1.0000
  Mg  Mg18      1.0  0.84677  0.40898  0.09976  1.0000
  C  Sn37      1.0  0.39978  0.89306  0.61025  1.0000
  C   C147      1.0  0.39332  0.92468  0.70405  1.0000
  C  Sn38      1.0  0.36487  0.92164  0.81966  1.0000
  C  Sn39      1.0  0.34243  0.88625  0.84205  1.0000
  C   C148      1.0  0.34891  0.85465  0.74830  1.0000
  C  Sn40      1.0  0.37734  0.85767  0.63264  1.0000
  O  Te37      1.0  0.42837  0.89675  0.49538  1.0000
  O  Te38      1.0  0.35893  0.95365  0.91195  1.0000
  O  Te39      1.0  0.31383  0.88258  0.95703  1.0000
  O  Te40      1.0  0.38329  0.82568  0.54040  1.0000
  Mg  Mg19      1.0  0.35016  0.94856  0.05321  1.0000
  Mg  Mg20      1.0  0.42562  0.84496  0.39916  1.0000
  C  Sn41      1.0  0.09385  0.38865  0.88435  1.0000
  C   C149      1.0  0.10253  0.42406  0.79849  1.0000
  C  Sn42      1.0  0.13372  0.42558  0.69423  1.0000
  C  Sn43      1.0  0.15672  0.39098  0.67533  1.0000
  C   C150      1.0  0.14803  0.35559  0.76113  1.0000
  C  Sn44      1.0  0.11684  0.35405  0.86544  1.0000
  O  Te41      1.0  0.06252  0.38782  0.98791  1.0000
  O  Te42      1.0  0.14184  0.46133  0.60972  1.0000
  O  Te43      1.0  0.18806  0.39184  0.57166  1.0000
  O  Te44      1.0  0.10872  0.31832  0.94990  1.0000
  Mg  Mg21      1.0  0.18755  0.44753  0.48290  1.0000
  Mg  Mg22      1.0  0.09657  0.34632  0.07669  1.0000
  C  Sn45      1.0  0.59755  0.88877  0.89510  1.0000
  C   C151      1.0  0.60320  0.92354  0.80334  1.0000
  C  Sn46      1.0  0.63166  0.92486  0.68766  1.0000
  C  Sn47      1.0  0.65495  0.89070  0.66310  1.0000
  C   C152      1.0  0.64930  0.85595  0.75481  1.0000
  C  Sn48      1.0  0.62085  0.85461  0.87055  1.0000
  O  Te45      1.0  0.60249  0.90236  0.01008  1.0000
  O  Te46      1.0  0.63676  0.95997  0.59742  1.0000
  O  Te47      1.0  0.68359  0.89137  0.54801  1.0000
  O  Te48      1.0  0.61573  0.81953  0.96073  1.0000
  Mg  Mg23      1.0  0.67949  0.94613  0.45511  1.0000
  Mg  Mg24      1.0  0.60656  0.84756  0.10302  1.0000
  C  Sn49      1.0  0.14749  0.57710  0.70059  1.0000
  C   C153      1.0  0.11110  0.56932  0.76385  1.0000
  C  Sn50      1.0  0.09017  0.59970  0.83429  1.0000
  C  Sn51      1.0  0.10592  0.63867  0.84159  1.0000
  C   C154      1.0  0.14229  0.64644  0.77834  1.0000
  C  Sn52      1.0  0.16324  0.61608  0.70789  1.0000
  O  Te49      1.0  0.16790  0.54629  0.63071  1.0000
  O  Te50      1.0  0.05385  0.59119  0.89676  1.0000
  O  Te51      1.0  0.08548  0.66950  0.91154  1.0000
  O  Te52      1.0  0.19953  0.62457  0.64543  1.0000
  Mg  Mg25      1.0  0.03717  0.64315  0.97991  1.0000
  Mg  Mg26      1.0  0.21624  0.57265  0.56219  1.0000
  C  Sn53      1.0  0.65223  0.10594  0.63875  1.0000
  C   C155      1.0  0.64691  0.13855  0.72871  1.0000
  C  Sn54      1.0  0.61866  0.13731  0.84514  1.0000
  C  Sn55      1.0  0.59525  0.10275  0.87229  1.0000
  C   C156      1.0  0.60058  0.07017  0.78238  1.0000
  C  Sn56      1.0  0.62883  0.07138  0.66590  1.0000
  O  Te53      1.0  0.68066  0.10783  0.52299  1.0000
  O  Te54      1.0  0.61387  0.17029  0.93354  1.0000
  O  Te55      1.0  0.56681  0.10088  0.98817  1.0000
  O  Te56      1.0  0.63362  0.03843  0.57755  1.0000
  Mg  Mg27      1.0  0.60488  0.16761  0.07786  1.0000
  Mg  Mg28      1.0  0.67618  0.05530  0.43325  1.0000
  C  Sn57      1.0  0.90677  0.61929  0.64627  1.0000
  C   C157      1.0  0.90362  0.58548  0.74321  1.0000
  C  Sn58      1.0  0.87018  0.57692  0.83073  1.0000
  C  Sn59      1.0  0.83923  0.60266  0.82108  1.0000
  C   C158      1.0  0.84239  0.63644  0.72417  1.0000
  C  Sn60      1.0  0.87582  0.64503  0.63662  1.0000
  O  Te57      1.0  0.94046  0.62726  0.55982  1.0000
  O  Te58      1.0  0.86771  0.54296  0.92686  1.0000
  O  Te59      1.0  0.80552  0.59466  0.90764  1.0000
  O  Te60      1.0  0.87830  0.67896  0.54052  1.0000
  Mg  Mg29      1.0  0.84944  0.55902  0.02179  1.0000
  Mg  Mg30      1.0  0.93010  0.67716  0.44549  1.0000
  C  Sn61      1.0  0.40908  0.11856  0.65758  1.0000
  C   C159      1.0  0.40379  0.08552  0.75753  1.0000
  C  Sn62      1.0  0.36907  0.07809  0.83721  1.0000
  C  Sn63      1.0  0.33900  0.10422  0.81651  1.0000
  C   C160      1.0  0.34429  0.13723  0.71661  1.0000
  C  Sn64      1.0  0.37901  0.14469  0.63689  1.0000
  O  Te61      1.0  0.44402  0.12540  0.57910  1.0000
  O  Te62      1.0  0.36446  0.04488  0.93653  1.0000
  O  Te63      1.0  0.30403  0.09735  0.89511  1.0000
  O  Te64      1.0  0.38362  0.17787  0.53760  1.0000
  Mg  Mg31      1.0  0.34513  0.06240  0.01763  1.0000
  Mg  Mg32      1.0  0.43649  0.17460  0.45640  1.0000
