data_image0
_chemical_formula_structural       C48H24C8H4N8C32H8O8H16C48H24C8H4N8C32H8O8H16SnCSn2CSnTe4Mg2SnCSn2CSnTe4Mg2SnCSn2CSnTe4Mg2SnCSn2CSnTe4Mg2SnCSn2CSnTe4Mg2SnCSn2CSnTe4Mg2SnCSn2CSnTe4Mg2SnCSn2CSnTe4Mg2
_chemical_formula_sum              "C192 H104 N16 O16 Sn32 Te32 Mg16"
_cell_length_a       36.4007
_cell_length_b       33
_cell_length_c       9.36574
_cell_angle_alpha    87.1013
_cell_angle_beta     82.4959
_cell_angle_gamma    89.819

_symmetry_space_group_name_H-M    'P1'
_space_group_IT_number       1

loop_
  _space_group_symop_operation_xyz
  'x, y, z'

loop_
  _atom_site_type_symbol
  _atom_site_label
  _atom_site_symmetry_multiplicity
  _atom_site_fract_x
  _atom_site_fract_y
  _atom_site_fract_z
  _atom_site_occupancy
  C   C1        1.0  0.03969  0.46224  0.28041  1.0000
  C   C2        1.0  0.54077  0.96207  0.24109  1.0000
  C   C3        1.0  0.96052  0.46179  0.28316  1.0000
  C   C4        1.0  0.46124  0.96064  0.25204  1.0000
  C   C5        1.0  0.96009  0.53723  0.27604  1.0000
  C   C6        1.0  0.46043  0.03595  0.25944  1.0000
  C   C7        1.0  0.03912  0.53767  0.27852  1.0000
  C   C8        1.0  0.53927  0.03728  0.25049  1.0000
  C   C9        1.0  0.98106  0.42532  0.29897  1.0000
  C   C10       1.0  0.48275  0.92429  0.24353  1.0000
  C   C11       1.0  0.01877  0.42541  0.29445  1.0000
  C   C12       1.0  0.52064  0.92511  0.23541  1.0000
  C   C13       1.0  0.01793  0.57432  0.28383  1.0000
  C   C14       1.0  0.51817  0.07376  0.25025  1.0000
  C   C15       1.0  0.98026  0.57399  0.28472  1.0000
  C   C16       1.0  0.48051  0.07311  0.25691  1.0000
  C   C17       1.0  0.92201  0.46156  0.26881  1.0000
  C   C18       1.0  0.42182  0.96074  0.26042  1.0000
  C   C19       1.0  0.07925  0.46274  0.26284  1.0000
  C   C20       1.0  0.58001  0.96338  0.23909  1.0000
  C   C21       1.0  0.07858  0.53746  0.26649  1.0000
  C   C22       1.0  0.57840  0.03797  0.24745  1.0000
  C   C23       1.0  0.92140  0.53637  0.26355  1.0000
  C   C24       1.0  0.42115  0.03524  0.26779  1.0000
  C   C25       1.0  0.90010  0.42456  0.25453  1.0000
  C   C26       1.0  0.39886  0.92445  0.24888  1.0000
  C   C27       1.0  0.10090  0.57479  0.26969  1.0000
  C   C28       1.0  0.60008  0.07565  0.25366  1.0000
  C   C29       1.0  0.86287  0.42217  0.32000  1.0000
  C   C30       1.0  0.36535  0.91874  0.34206  1.0000
  C   C31       1.0  0.13218  0.58292  0.16584  1.0000
  C   C32       1.0  0.63413  0.08065  0.16322  1.0000
  C   C33       1.0  0.83992  0.38990  0.29993  1.0000
  C   C34       1.0  0.34137  0.88707  0.32793  1.0000
  C   C35       1.0  0.15429  0.61687  0.17212  1.0000
  C   C36       1.0  0.65762  0.11315  0.17354  1.0000
  C   C37       1.0  0.85355  0.35821  0.21213  1.0000
  C   C38       1.0  0.34974  0.85984  0.21705  1.0000
  C   C39       1.0  0.14630  0.64387  0.28424  1.0000
  C   C40       1.0  0.64800  0.14239  0.27680  1.0000
  C   C41       1.0  0.89058  0.36047  0.14529  1.0000
  C   C42       1.0  0.38336  0.86504  0.12519  1.0000
  C   C43       1.0  0.11443  0.63664  0.38521  1.0000
  C   C44       1.0  0.61347  0.13833  0.36453  1.0000
  C   C45       1.0  0.91347  0.39266  0.16717  1.0000
  C   C46       1.0  0.40747  0.89661  0.14073  1.0000
  C   C47       1.0  0.09245  0.60254  0.37889  1.0000
  C   C48       1.0  0.58994  0.10577  0.35340  1.0000
  H   H1        1.0  0.96622  0.39666  0.31375  1.0000
  H   H2        1.0  0.46841  0.89542  0.24351  1.0000
  H   H3        1.0  0.03335  0.39676  0.29945  1.0000
  H   H4        1.0  0.53595  0.89689  0.22421  1.0000
  H   H5        1.0  0.03221  0.60309  0.28662  1.0000
  H   H6        1.0  0.53244  0.10270  0.24439  1.0000
  H   H7        1.0  0.96514  0.60243  0.29143  1.0000
  H   H8        1.0  0.46526  0.10142  0.26020  1.0000
  H   H9        1.0  0.85194  0.44601  0.38966  1.0000
  H   H10       1.0  0.35891  0.93914  0.42930  1.0000
  H   H11       1.0  0.13847  0.56302  0.07637  1.0000
  H   H12       1.0  0.64213  0.05811  0.08419  1.0000
  H   H13       1.0  0.81121  0.38930  0.35097  1.0000
  H   H14       1.0  0.31669  0.88292  0.40604  1.0000
  H   H15       1.0  0.17704  0.62324  0.08651  1.0000
  H   H16       1.0  0.68387  0.11505  0.10323  1.0000
  H   H17       1.0  0.90093  0.33675  0.07405  1.0000
  H   H18       1.0  0.38951  0.84413  0.03939  1.0000
  H   H19       1.0  0.10838  0.65741  0.47200  1.0000
  H   H20       1.0  0.60616  0.16045  0.44592  1.0000
  H   H21       1.0  0.94155  0.39426  0.11010  1.0000
  H   H22       1.0  0.43253  0.90094  0.06491  1.0000
  H   H23       1.0  0.06916  0.59639  0.46267  1.0000
  H   H24       1.0  0.56462  0.10241  0.42963  1.0000
  C   C49       1.0  0.90385  0.49885  0.25927  1.0000
  C   C50       1.0  0.40304  0.99780  0.27195  1.0000
  C   C51       1.0  0.09741  0.50042  0.25357  1.0000
  C   C52       1.0  0.59753  0.00106  0.24044  1.0000
  C   C53       1.0  0.01958  0.49984  0.28138  1.0000
  C   C54       1.0  0.52023  0.99925  0.24884  1.0000
  C   C55       1.0  0.98002  0.49965  0.28083  1.0000
  C   C56       1.0  0.48059  0.99853  0.25344  1.0000
  H   H25       1.0  0.87502  0.49879  0.23970  1.0000
  H   H26       1.0  0.37312  0.99773  0.27276  1.0000
  H   H27       1.0  0.12756  0.50113  0.24403  1.0000
  H   H28       1.0  0.62730  0.00145  0.24341  1.0000
  N   N1        1.0  0.32861  0.17236  0.19624  1.0000
  N   N2        1.0  0.82996  0.67466  0.17848  1.0000
  N   N3        1.0  0.67131  0.17371  0.30791  1.0000
  N   N4        1.0  0.16750  0.67794  0.30341  1.0000
  N   N5        1.0  0.67712  0.82875  0.29708  1.0000
  N   N6        1.0  0.17682  0.32595  0.26981  1.0000
  N   N7        1.0  0.32791  0.82701  0.18968  1.0000
  N   N8        1.0  0.83190  0.32553  0.18019  1.0000
  C   C57       1.0  0.30210  0.18517  0.28807  1.0000
  C   C58       1.0  0.80491  0.68781  0.27556  1.0000
  C   C59       1.0  0.69785  0.18751  0.21310  1.0000
  C   C60       1.0  0.20136  0.68118  0.24209  1.0000
  C   C61       1.0  0.69332  0.80917  0.19082  1.0000
  C   C62       1.0  0.20693  0.32005  0.18139  1.0000
  C   C63       1.0  0.29619  0.81980  0.26574  1.0000
  C   C64       1.0  0.80688  0.31031  0.27841  1.0000
  C   C65       1.0  0.27790  0.21868  0.25258  1.0000
  C   C66       1.0  0.77809  0.71931  0.24670  1.0000
  C   C67       1.0  0.72434  0.21884  0.23958  1.0000
  C   C68       1.0  0.22439  0.71651  0.25355  1.0000
  C   C69       1.0  0.72080  0.77748  0.21392  1.0000
  C   C70       1.0  0.23081  0.28632  0.20852  1.0000
  C   C71       1.0  0.27333  0.78472  0.24930  1.0000
  C   C72       1.0  0.78079  0.27833  0.25707  1.0000
  C   C73       1.0  0.24429  0.22384  0.34244  1.0000
  C   C74       1.0  0.74661  0.72230  0.35044  1.0000
  C   C75       1.0  0.75650  0.22275  0.13828  1.0000
  C   C76       1.0  0.25984  0.71776  0.17196  1.0000
  C   C77       1.0  0.75200  0.77444  0.11046  1.0000
  C   C78       1.0  0.26419  0.28093  0.11838  1.0000
  C   C79       1.0  0.23820  0.78317  0.33271  1.0000
  C   C80       1.0  0.74915  0.27420  0.36028  1.0000
  C   C81       1.0  0.22093  0.25679  0.32360  1.0000
  C   C82       1.0  0.71842  0.75030  0.33646  1.0000
  C   C83       1.0  0.78426  0.25116  0.14408  1.0000
  C   C84       1.0  0.28358  0.75097  0.16437  1.0000
  C   C85       1.0  0.78043  0.74663  0.12424  1.0000
  C   C86       1.0  0.28725  0.24816  0.13784  1.0000
  C   C87       1.0  0.21371  0.75078  0.33611  1.0000
  C   C88       1.0  0.72127  0.24578  0.35442  1.0000
  H   H29       1.0  0.23627  0.20167  0.43086  1.0000
  H   H30       1.0  0.74467  0.70144  0.44493  1.0000
  H   H31       1.0  0.75937  0.20283  0.04830  1.0000
  H   H32       1.0  0.26884  0.69224  0.10689  1.0000
  H   H33       1.0  0.75397  0.79506  0.01577  1.0000
  H   H34       1.0  0.27238  0.30269  0.02906  1.0000
  H   H35       1.0  0.23045  0.80854  0.40022  1.0000
  H   H36       1.0  0.74706  0.29453  0.44919  1.0000
  O   O1        1.0  0.18933  0.26006  0.41574  1.0000
  O   O2        1.0  0.68748  0.75160  0.43633  1.0000
  O   O3        1.0  0.81461  0.25350  0.04224  1.0000
  O   O4        1.0  0.31660  0.75213  0.07490  1.0000
  O   O5        1.0  0.81028  0.74506  0.02065  1.0000
  O   O6        1.0  0.31941  0.24437  0.04566  1.0000
  O   O7        1.0  0.18021  0.75048  0.42215  1.0000
  O   O8        1.0  0.69055  0.24456  0.45624  1.0000
  H   H37       1.0  0.29695  0.17278  0.40033  1.0000
  H   H38       1.0  0.17645  0.28529  0.37818  1.0000
  H   H39       1.0  0.80195  0.67514  0.38764  1.0000
  H   H40       1.0  0.69194  0.73503  0.52148  1.0000
  H   H41       1.0  0.70180  0.17760  0.10166  1.0000
  H   H42       1.0  0.80896  0.23906  0.95936  1.0000
  H   H43       1.0  0.21482  0.65759  0.17447  1.0000
  H   H44       1.0  0.31707  0.72921  0.01309  1.0000
  H   H45       1.0  0.68737  0.81478  0.07941  1.0000
  H   H46       1.0  0.80373  0.75798  0.93150  1.0000
  H   H47       1.0  0.21456  0.33932  0.08307  1.0000
  H   H48       1.0  0.31815  0.26489  0.96826  1.0000
  H   H49       1.0  0.28439  0.83868  0.35393  1.0000
  H   H50       1.0  0.18043  0.77243  0.48813  1.0000
  H   H51       1.0  0.80368  0.32103  0.38875  1.0000
  H   H52       1.0  0.69742  0.25823  0.53946  1.0000
  C   C89       1.0  0.03958  0.46226  0.71974  1.0000
  C   C90       1.0  0.53809  0.96077  0.74941  1.0000
  C   C91       1.0  0.96042  0.46187  0.72641  1.0000
  C   C92       1.0  0.45850  0.96069  0.75589  1.0000
  C   C93       1.0  0.95985  0.53730  0.72509  1.0000
  C   C94       1.0  0.45869  0.03609  0.75629  1.0000
  C   C95       1.0  0.03908  0.53767  0.72046  1.0000
  C   C96       1.0  0.53797  0.03621  0.75001  1.0000
  C   C97       1.0  0.98159  0.42528  0.71634  1.0000
  C   C98       1.0  0.47962  0.92404  0.75128  1.0000
  C   C99       1.0  0.01935  0.42567  0.71046  1.0000
  C   C100      1.0  0.51743  0.92419  0.74547  1.0000
  C   C101      1.0  0.01828  0.57435  0.71504  1.0000
  C   C102      1.0  0.51720  0.07290  0.74666  1.0000
  C   C103      1.0  0.98056  0.57420  0.71931  1.0000
  C   C104      1.0  0.47943  0.07280  0.75384  1.0000
  C   C105      1.0  0.92097  0.46202  0.74186  1.0000
  C   C106      1.0  0.41906  0.96127  0.75986  1.0000
  C   C107      1.0  0.07833  0.46264  0.73004  1.0000
  C   C108      1.0  0.57731  0.96133  0.74897  1.0000
  C   C109      1.0  0.07792  0.53740  0.72929  1.0000
  C   C110      1.0  0.57726  0.03610  0.74766  1.0000
  C   C111      1.0  0.92034  0.53668  0.73965  1.0000
  C   C112      1.0  0.41943  0.03605  0.76064  1.0000
  C   C113      1.0  0.39606  0.92479  0.75000  1.0000
  C   C114      1.0  0.10081  0.42573  0.74795  1.0000
  C   C115      1.0  0.60037  0.07289  0.75094  1.0000
  C   C116      1.0  0.39729  0.07371  0.75166  1.0000
  C   C117      1.0  0.36037  0.92098  0.82980  1.0000
  C   C118      1.0  0.13801  0.42485  0.68286  1.0000
  C   C119      1.0  0.63586  0.07543  0.66931  1.0000
  C   C120      1.0  0.36421  0.07841  0.84630  1.0000
  C   C121      1.0  0.33718  0.88861  0.81359  1.0000
  C   C122      1.0  0.16092  0.39193  0.70567  1.0000
  C   C123      1.0  0.65989  0.10758  0.68006  1.0000
  C   C124      1.0  0.34116  0.11163  0.83128  1.0000
  C   C125      1.0  0.34874  0.85850  0.71593  1.0000
  C   C126      1.0  0.14719  0.35792  0.79353  1.0000
  C   C127      1.0  0.64962  0.13841  0.77616  1.0000
  C   C128      1.0  0.35044  0.14184  0.72046  1.0000
  C   C129      1.0  0.38414  0.86229  0.63480  1.0000
  C   C130      1.0  0.11037  0.35893  0.86168  1.0000
  C   C131      1.0  0.61418  0.13618  0.85723  1.0000
  C   C132      1.0  0.38361  0.13752  0.62679  1.0000
  C   C133      1.0  0.40728  0.89458  0.65209  1.0000
  C   C134      1.0  0.08769  0.39205  0.83930  1.0000
  C   C135      1.0  0.58993  0.10455  0.84353  1.0000
  C   C136      1.0  0.40661  0.10429  0.64230  1.0000
  H   H53       1.0  0.96738  0.39646  0.71454  1.0000
  H   H54       1.0  0.46521  0.89523  0.75272  1.0000
  H   H55       1.0  0.03463  0.39745  0.69922  1.0000
  H   H56       1.0  0.53225  0.89566  0.73563  1.0000
  H   H57       1.0  0.03292  0.60311  0.71011  1.0000
  H   H58       1.0  0.53193  0.10164  0.73840  1.0000
  H   H59       1.0  0.96574  0.60281  0.72078  1.0000
  H   H60       1.0  0.46447  0.10130  0.75606  1.0000
  H   H61       1.0  0.35065  0.94358  0.90664  1.0000
  H   H62       1.0  0.14913  0.45072  0.61421  1.0000
  H   H63       1.0  0.64444  0.05163  0.59573  1.0000
  H   H64       1.0  0.35699  0.05585  0.93437  1.0000
  H   H65       1.0  0.30951  0.88682  0.87403  1.0000
  H   H66       1.0  0.18990  0.39262  0.65880  1.0000
  H   H67       1.0  0.68695  0.10845  0.61514  1.0000
  H   H68       1.0  0.31573  0.11405  0.90555  1.0000
  H   H69       1.0  0.39271  0.84021  0.55478  1.0000
  H   H70       1.0  0.10042  0.33340  0.93436  1.0000
  H   H71       1.0  0.60656  0.15942  0.93363  1.0000
  H   H72       1.0  0.39016  0.16045  0.53961  1.0000
  H   H73       1.0  0.43356  0.89809  0.58229  1.0000
  H   H74       1.0  0.06004  0.39307  0.89952  1.0000
  H   H75       1.0  0.56321  0.10329  0.91099  1.0000
  H   H76       1.0  0.43131  0.10086  0.56483  1.0000
  C   C137      1.0  0.90215  0.49908  0.75162  1.0000
  C   C138      1.0  0.40087  0.99883  0.76610  1.0000
  C   C139      1.0  0.09610  0.50007  0.73339  1.0000
  C   C140      1.0  0.59540  0.99871  0.74763  1.0000
  C   C141      1.0  0.01963  0.49989  0.71925  1.0000
  C   C142      1.0  0.51815  0.99843  0.75275  1.0000
  C   C143      1.0  0.97999  0.49972  0.72178  1.0000
  C   C144      1.0  0.47842  0.99834  0.75533  1.0000
  H   H77       1.0  0.87202  0.49856  0.76008  1.0000
  H   H78       1.0  0.37101  0.99934  0.76475  1.0000
  H   H79       1.0  0.12511  0.50003  0.75007  1.0000
  H   H80       1.0  0.62503  0.99862  0.75361  1.0000
  N   N9        1.0  0.32783  0.17481  0.68948  1.0000
  N   N10       1.0  0.82426  0.67257  0.69844  1.0000
  N   N11       1.0  0.67352  0.16915  0.80557  1.0000
  N   N12       1.0  0.16827  0.67348  0.81605  1.0000
  N   N13       1.0  0.67132  0.82519  0.80978  1.0000
  N   N14       1.0  0.16914  0.32477  0.82742  1.0000
  N   N15       1.0  0.32591  0.82684  0.68653  1.0000
  N   N16       1.0  0.82640  0.32690  0.69559  1.0000
  C   C145      1.0  0.30277  0.18699  0.78845  1.0000
  C   C146      1.0  0.80195  0.68788  0.79963  1.0000
  C   C147      1.0  0.69675  0.18638  0.70534  1.0000
  C   C148      1.0  0.19409  0.68801  0.71880  1.0000
  C   C149      1.0  0.69280  0.81060  0.70466  1.0000
  C   C150      1.0  0.19352  0.31151  0.72767  1.0000
  C   C151      1.0  0.30223  0.81071  0.78830  1.0000
  C   C152      1.0  0.80349  0.30987  0.79739  1.0000
  C   C153      1.0  0.27590  0.21875  0.76602  1.0000
  C   C154      1.0  0.77459  0.71865  0.76704  1.0000
  C   C155      1.0  0.72357  0.21692  0.73604  1.0000
  C   C156      1.0  0.21997  0.71996  0.74144  1.0000
  C   C157      1.0  0.71838  0.77734  0.72824  1.0000
  C   C158      1.0  0.22053  0.27975  0.74939  1.0000
  C   C159      1.0  0.27520  0.78003  0.76480  1.0000
  C   C160      1.0  0.77779  0.27764  0.77046  1.0000
  C   C161      1.0  0.24563  0.22207  0.87482  1.0000
  C   C162      1.0  0.74166  0.72055  0.86331  1.0000
  C   C163      1.0  0.75689  0.22147  0.64248  1.0000
  C   C164      1.0  0.24891  0.72920  0.62916  1.0000
  C   C165      1.0  0.75080  0.77504  0.62972  1.0000
  C   C166      1.0  0.25069  0.27631  0.63995  1.0000
  C   C167      1.0  0.24582  0.77157  0.87568  1.0000
  C   C168      1.0  0.74446  0.27296  0.86454  1.0000
  C   C169      1.0  0.21829  0.25151  0.86917  1.0000
  C   C170      1.0  0.71352  0.74845  0.84595  1.0000
  C   C171      1.0  0.78408  0.25002  0.65845  1.0000
  C   C172      1.0  0.27611  0.75819  0.63785  1.0000
  C   C173      1.0  0.77848  0.74659  0.64610  1.0000
  C   C174      1.0  0.27772  0.24653  0.64493  1.0000
  C   C175      1.0  0.21851  0.74264  0.86685  1.0000
  C   C176      1.0  0.71820  0.24305  0.85216  1.0000
  H   H81       1.0  0.24403  0.20041  0.96730  1.0000
  H   H82       1.0  0.73836  0.69913  0.95621  1.0000
  H   H83       1.0  0.76122  0.20158  0.55289  1.0000
  H   H84       1.0  0.24976  0.71257  0.53126  1.0000
  H   H85       1.0  0.75411  0.79694  0.53782  1.0000
  H   H86       1.0  0.25266  0.29811  0.54784  1.0000
  H   H87       1.0  0.24455  0.78897  0.97212  1.0000
  H   H88       1.0  0.73941  0.29355  0.95214  1.0000
  O   O9        1.0  0.18891  0.25372  0.97580  1.0000
  O   O10       1.0  0.68145  0.74851  0.94105  1.0000
  O   O11       1.0  0.81725  0.25146  0.56968  1.0000
  O   O12       1.0  0.30426  0.76552  0.52860  1.0000
  O   O13       1.0  0.80946  0.74527  0.54702  1.0000
  O   O14       1.0  0.30653  0.24353  0.53725  1.0000
  O   O15       1.0  0.19022  0.73592  0.97600  1.0000
  O   O16       1.0  0.68697  0.23829  0.94953  1.0000
  H   H89       1.0  0.30018  0.17393  0.89989  1.0000
  H   H90       1.0  0.19357  0.23447  0.05377  1.0000
  H   H91       1.0  0.80226  0.67942  0.91459  1.0000
  H   H92       1.0  0.68663  0.73314  0.02781  1.0000
  H   H93       1.0  0.69684  0.18042  0.59099  1.0000
  H   H94       1.0  0.81638  0.23182  0.49611  1.0000
  H   H95       1.0  0.19827  0.67655  0.60945  1.0000
  H   H96       1.0  0.29779  0.75292  0.44311  1.0000
  H   H97       1.0  0.69329  0.82249  0.59228  1.0000
  H   H98       1.0  0.80518  0.76263  0.46380  1.0000
  H   H99       1.0  0.19497  0.32427  0.61621  1.0000
  H   H100      1.0  0.30128  0.26106  0.45578  1.0000
  H   H101      1.0  0.30172  0.81861  0.90157  1.0000
  H   H102      1.0  0.19705  0.74879  0.06043  1.0000
  H   H103      1.0  0.80226  0.31747  0.91087  1.0000
  H   H104      1.0  0.68890  0.25604  0.02804  1.0000
  C  Sn1       1.0  0.10797  0.35978  0.34168  1.0000
  C   C177      1.0  0.13991  0.35332  0.24549  1.0000
  C  Sn2       1.0  0.15616  0.38526  0.15576  1.0000
  C  Sn3       1.0  0.14017  0.42448  0.16238  1.0000
  C   C178      1.0  0.10825  0.43092  0.25854  1.0000
  C  Sn4       1.0  0.09198  0.39900  0.34830  1.0000
  O  Te1       1.0  0.09219  0.32741  0.43037  1.0000
  O  Te2       1.0  0.18808  0.37806  0.06044  1.0000
  O  Te3       1.0  0.15597  0.45686  0.07358  1.0000
  O  Te4       1.0  0.06008  0.40619  0.44359  1.0000
  Mg  Mg1       1.0  0.16579  0.41766  0.96164  1.0000
  Mg  Mg2       1.0  0.04880  0.35238  0.54249  1.0000
  C  Sn5       1.0  0.66337  0.90604  0.18104  1.0000
  C   C179      1.0  0.65877  0.87209  0.27715  1.0000
  C  Sn6       1.0  0.62398  0.86263  0.35303  1.0000
  C  Sn7       1.0  0.59314  0.88760  0.33237  1.0000
  C   C180      1.0  0.59774  0.92151  0.23629  1.0000
  C  Sn8       1.0  0.63253  0.93101  0.16037  1.0000
  O  Te5       1.0  0.69840  0.91493  0.10631  1.0000
  O  Te6       1.0  0.62007  0.82854  0.44857  1.0000
  O  Te7       1.0  0.55809  0.87868  0.40720  1.0000
  O  Te8       1.0  0.63644  0.96507  0.06487  1.0000
  Mg  Mg3       1.0  0.56676  0.82899  0.52536  1.0000
  Mg  Mg4       1.0  0.65617  0.95040  0.98797  1.0000
  C  Sn9       1.0  0.35275  0.07488  0.32623  1.0000
  C   C181      1.0  0.38793  0.06840  0.25165  1.0000
  C  Sn10      1.0  0.40715  0.10015  0.17036  1.0000
  C  Sn11      1.0  0.39088  0.13919  0.16352  1.0000
  C   C182      1.0  0.35573  0.14566  0.23808  1.0000
  C  Sn12      1.0  0.33648  0.11393  0.31939  1.0000
  O  Te9       1.0  0.33405  0.04271  0.40684  1.0000
  O  Te10      1.0  0.44228  0.09293  0.09669  1.0000
  O  Te11      1.0  0.40962  0.17137  0.08282  1.0000
  O  Te12      1.0  0.30138  0.12113  0.39304  1.0000
  Mg  Mg5       1.0  0.45679  0.14647  0.00143  1.0000
  Mg  Mg6       1.0  0.28685  0.06762  0.48839  1.0000
  C  Sn13      1.0  0.63904  0.91350  0.64134  1.0000
  C   C183      1.0  0.60369  0.91903  0.71589  1.0000
  C  Sn14      1.0  0.59170  0.89537  0.84111  1.0000
  C  Sn15      1.0  0.61554  0.86558  0.89297  1.0000
  C   C184      1.0  0.65086  0.86007  0.81845  1.0000
  C  Sn16      1.0  0.66288  0.88371  0.69319  1.0000
  O  Te13      1.0  0.65045  0.93749  0.51639  1.0000
  O  Te14      1.0  0.55624  0.90145  0.91377  1.0000
  O  Te15      1.0  0.63766  0.85582  0.01802  1.0000
  O  Te16      1.0  0.69832  0.87765  0.62057  1.0000
  Mg  Mg7       1.0  0.58689  0.87549  0.07914  1.0000
  Mg  Mg8       1.0  0.70126  0.91784  0.45524  1.0000
  C  Sn17      1.0  0.90677  0.61929  0.64627  1.0000
  C   C185      1.0  0.90362  0.58548  0.74321  1.0000
  C  Sn18      1.0  0.87018  0.57692  0.83073  1.0000
  C  Sn19      1.0  0.83923  0.60266  0.82108  1.0000
  C   C186      1.0  0.84239  0.63644  0.72417  1.0000
  C  Sn20      1.0  0.87582  0.64503  0.63662  1.0000
  O  Te17      1.0  0.94046  0.62726  0.55982  1.0000
  O  Te18      1.0  0.86771  0.54296  0.92686  1.0000
  O  Te19      1.0  0.80552  0.59466  0.90764  1.0000
  O  Te20      1.0  0.87830  0.67896  0.54052  1.0000
  Mg  Mg9       1.0  0.84944  0.55902  0.02179  1.0000
  Mg  Mg10      1.0  0.93010  0.67716  0.44549  1.0000
  C  Sn21      1.0  0.14749  0.57710  0.70059  1.0000
  C   C187      1.0  0.11110  0.56932  0.76385  1.0000
  C  Sn22      1.0  0.09017  0.59970  0.83429  1.0000
  C  Sn23      1.0  0.10592  0.63867  0.84159  1.0000
  C   C188      1.0  0.14229  0.64644  0.77834  1.0000
  C  Sn24      1.0  0.16324  0.61608  0.70789  1.0000
  O  Te21      1.0  0.16790  0.54629  0.63071  1.0000
  O  Te22      1.0  0.05385  0.59119  0.89676  1.0000
  O  Te23      1.0  0.08548  0.66950  0.91154  1.0000
  O  Te24      1.0  0.19953  0.62457  0.64543  1.0000
  Mg  Mg11      1.0  0.03717  0.64315  0.97991  1.0000
  Mg  Mg12      1.0  0.21624  0.57265  0.56219  1.0000
  C  Sn25      1.0  0.89429  0.36397  0.64017  1.0000
  C   C189      1.0  0.86117  0.35412  0.72806  1.0000
  C  Sn26      1.0  0.84411  0.38216  0.82192  1.0000
  C  Sn27      1.0  0.86047  0.42088  0.82802  1.0000
  C   C190      1.0  0.89357  0.43072  0.74015  1.0000
  C  Sn28      1.0  0.91066  0.40269  0.64627  1.0000
  O  Te25      1.0  0.91087  0.33546  0.54713  1.0000
  O  Te26      1.0  0.81101  0.37161  0.90877  1.0000
  O  Te27      1.0  0.84387  0.44939  0.92116  1.0000
  O  Te28      1.0  0.94373  0.41323  0.55944  1.0000
  Mg  Mg13      1.0  0.83254  0.43504  0.01797  1.0000
  Mg  Mg14      1.0  0.95577  0.36407  0.45015  1.0000
  C  Sn29      1.0  0.91190  0.62016  0.17736  1.0000
  C   C191      1.0  0.90372  0.58441  0.26187  1.0000
  C  Sn30      1.0  0.86708  0.57450  0.31589  1.0000
  C  Sn31      1.0  0.83800  0.60087  0.28472  1.0000
  C   C192      1.0  0.84619  0.63659  0.20024  1.0000
  C  Sn32      1.0  0.88282  0.64652  0.14619  1.0000
  O  Te29      1.0  0.94873  0.62945  0.12449  1.0000
  O  Te30      1.0  0.85960  0.53860  0.40017  1.0000
  O  Te31      1.0  0.80116  0.59154  0.33767  1.0000
  O  Te32      1.0  0.89031  0.68239  0.06194  1.0000
  Mg  Mg15      1.0  0.80498  0.53918  0.44743  1.0000
  Mg  Mg16      1.0  0.94492  0.68184  0.01457  1.0000
