data_image0
_chemical_formula_structural       C24H8C8H4N8C32H8O8H16C24H8C8H4N8C32H8O8H16C2Sn2C2HTe2HMgC2Sn2C2HTe2HMgC2Sn2C2HTe2HMgC2Sn2C2HTe2HMgC2Sn2C2HTe2HMgC2Sn2C2HTe2HMgC2Sn2C2HTe2HMgC2Sn2C2HTe2HMgC2Sn2C2HTe2HMgC2Sn2C2HTe2HMgC2Sn2C2HTe2HMgC2Sn2C2HTe2HMgC2Sn2C2HTe2HMgC2Sn2C2HTe2HMgC2Sn2C2HTe2HMgC2Sn2C2HTe2HMg
_chemical_formula_sum              "C192 H104 N16 O16 Sn32 Te32 Mg16"
_cell_length_a       36.4007
_cell_length_b       33
_cell_length_c       9.36574
_cell_angle_alpha    87.1013
_cell_angle_beta     82.4959
_cell_angle_gamma    89.819

_symmetry_space_group_name_H-M    'P1'
_space_group_IT_number       1

loop_
  _space_group_symop_operation_xyz
  'x, y, z'

loop_
  _atom_site_type_symbol
  _atom_site_label
  _atom_site_symmetry_multiplicity
  _atom_site_fract_x
  _atom_site_fract_y
  _atom_site_fract_z
  _atom_site_occupancy
  C   C1        1.0  0.03969  0.46224  0.28041  1.0000
  C   C2        1.0  0.54077  0.96207  0.24109  1.0000
  C   C3        1.0  0.96052  0.46179  0.28316  1.0000
  C   C4        1.0  0.46124  0.96064  0.25204  1.0000
  C   C5        1.0  0.96009  0.53723  0.27604  1.0000
  C   C6        1.0  0.46043  0.03595  0.25944  1.0000
  C   C7        1.0  0.03912  0.53767  0.27852  1.0000
  C   C8        1.0  0.53927  0.03728  0.25049  1.0000
  C   C9        1.0  0.98106  0.42532  0.29897  1.0000
  C   C10       1.0  0.48275  0.92429  0.24353  1.0000
  C   C11       1.0  0.01877  0.42541  0.29445  1.0000
  C   C12       1.0  0.52064  0.92511  0.23541  1.0000
  C   C13       1.0  0.01793  0.57432  0.28383  1.0000
  C   C14       1.0  0.51817  0.07376  0.25025  1.0000
  C   C15       1.0  0.98026  0.57399  0.28472  1.0000
  C   C16       1.0  0.48051  0.07311  0.25691  1.0000
  C   C17       1.0  0.92201  0.46156  0.26881  1.0000
  C   C18       1.0  0.42182  0.96074  0.26042  1.0000
  C   C19       1.0  0.07925  0.46274  0.26284  1.0000
  C   C20       1.0  0.58001  0.96338  0.23909  1.0000
  C   C21       1.0  0.07858  0.53746  0.26649  1.0000
  C   C22       1.0  0.57840  0.03797  0.24745  1.0000
  C   C23       1.0  0.92140  0.53637  0.26355  1.0000
  C   C24       1.0  0.42115  0.03524  0.26779  1.0000
  H   H1        1.0  0.96622  0.39666  0.31375  1.0000
  H   H2        1.0  0.46841  0.89542  0.24351  1.0000
  H   H3        1.0  0.03335  0.39676  0.29945  1.0000
  H   H4        1.0  0.53595  0.89689  0.22421  1.0000
  H   H5        1.0  0.03221  0.60309  0.28662  1.0000
  H   H6        1.0  0.53244  0.10270  0.24439  1.0000
  H   H7        1.0  0.96514  0.60243  0.29143  1.0000
  H   H8        1.0  0.46526  0.10142  0.26020  1.0000
  C   C25       1.0  0.90385  0.49885  0.25927  1.0000
  C   C26       1.0  0.40304  0.99780  0.27195  1.0000
  C   C27       1.0  0.09741  0.50042  0.25357  1.0000
  C   C28       1.0  0.59753  0.00106  0.24044  1.0000
  C   C29       1.0  0.01958  0.49984  0.28138  1.0000
  C   C30       1.0  0.52023  0.99925  0.24884  1.0000
  C   C31       1.0  0.98002  0.49965  0.28083  1.0000
  C   C32       1.0  0.48059  0.99853  0.25344  1.0000
  H   H9        1.0  0.87502  0.49879  0.23970  1.0000
  H   H10       1.0  0.37312  0.99773  0.27276  1.0000
  H   H11       1.0  0.12756  0.50113  0.24403  1.0000
  H   H12       1.0  0.62730  0.00145  0.24341  1.0000
  N   N1        1.0  0.32861  0.17236  0.19624  1.0000
  N   N2        1.0  0.82996  0.67466  0.17848  1.0000
  N   N3        1.0  0.67131  0.17371  0.30791  1.0000
  N   N4        1.0  0.16750  0.67794  0.30341  1.0000
  N   N5        1.0  0.67712  0.82875  0.29708  1.0000
  N   N6        1.0  0.17682  0.32595  0.26981  1.0000
  N   N7        1.0  0.32791  0.82701  0.18968  1.0000
  N   N8        1.0  0.83190  0.32553  0.18019  1.0000
  C   C33       1.0  0.30210  0.18517  0.28807  1.0000
  C   C34       1.0  0.80491  0.68781  0.27556  1.0000
  C   C35       1.0  0.69785  0.18751  0.21310  1.0000
  C   C36       1.0  0.20136  0.68118  0.24209  1.0000
  C   C37       1.0  0.69332  0.80917  0.19082  1.0000
  C   C38       1.0  0.20693  0.32005  0.18139  1.0000
  C   C39       1.0  0.29619  0.81980  0.26574  1.0000
  C   C40       1.0  0.80688  0.31031  0.27841  1.0000
  C   C41       1.0  0.27790  0.21868  0.25258  1.0000
  C   C42       1.0  0.77809  0.71931  0.24670  1.0000
  C   C43       1.0  0.72434  0.21884  0.23958  1.0000
  C   C44       1.0  0.22439  0.71651  0.25355  1.0000
  C   C45       1.0  0.72080  0.77748  0.21392  1.0000
  C   C46       1.0  0.23081  0.28632  0.20852  1.0000
  C   C47       1.0  0.27333  0.78472  0.24930  1.0000
  C   C48       1.0  0.78079  0.27833  0.25707  1.0000
  C   C49       1.0  0.24429  0.22384  0.34244  1.0000
  C   C50       1.0  0.74661  0.72230  0.35044  1.0000
  C   C51       1.0  0.75650  0.22275  0.13828  1.0000
  C   C52       1.0  0.25984  0.71776  0.17196  1.0000
  C   C53       1.0  0.75200  0.77444  0.11046  1.0000
  C   C54       1.0  0.26419  0.28093  0.11838  1.0000
  C   C55       1.0  0.23820  0.78317  0.33271  1.0000
  C   C56       1.0  0.74915  0.27420  0.36028  1.0000
  C   C57       1.0  0.22093  0.25679  0.32360  1.0000
  C   C58       1.0  0.71842  0.75030  0.33646  1.0000
  C   C59       1.0  0.78426  0.25116  0.14408  1.0000
  C   C60       1.0  0.28358  0.75097  0.16437  1.0000
  C   C61       1.0  0.78043  0.74663  0.12424  1.0000
  C   C62       1.0  0.28725  0.24816  0.13784  1.0000
  C   C63       1.0  0.21371  0.75078  0.33611  1.0000
  C   C64       1.0  0.72127  0.24578  0.35442  1.0000
  H   H13       1.0  0.23627  0.20167  0.43086  1.0000
  H   H14       1.0  0.74467  0.70144  0.44493  1.0000
  H   H15       1.0  0.75937  0.20283  0.04830  1.0000
  H   H16       1.0  0.26884  0.69224  0.10689  1.0000
  H   H17       1.0  0.75397  0.79506  0.01577  1.0000
  H   H18       1.0  0.27238  0.30269  0.02906  1.0000
  H   H19       1.0  0.23045  0.80854  0.40022  1.0000
  H   H20       1.0  0.74706  0.29453  0.44919  1.0000
  O   O1        1.0  0.18933  0.26006  0.41574  1.0000
  O   O2        1.0  0.68748  0.75160  0.43633  1.0000
  O   O3        1.0  0.81461  0.25350  0.04224  1.0000
  O   O4        1.0  0.31660  0.75213  0.07490  1.0000
  O   O5        1.0  0.81028  0.74506  0.02065  1.0000
  O   O6        1.0  0.31941  0.24437  0.04566  1.0000
  O   O7        1.0  0.18021  0.75048  0.42215  1.0000
  O   O8        1.0  0.69055  0.24456  0.45624  1.0000
  H   H21       1.0  0.29695  0.17278  0.40033  1.0000
  H   H22       1.0  0.17645  0.28529  0.37818  1.0000
  H   H23       1.0  0.80195  0.67514  0.38764  1.0000
  H   H24       1.0  0.69194  0.73503  0.52148  1.0000
  H   H25       1.0  0.70180  0.17760  0.10166  1.0000
  H   H26       1.0  0.80896  0.23906  0.95936  1.0000
  H   H27       1.0  0.21482  0.65759  0.17447  1.0000
  H   H28       1.0  0.31707  0.72921  0.01309  1.0000
  H   H29       1.0  0.68737  0.81478  0.07941  1.0000
  H   H30       1.0  0.80373  0.75798  0.93150  1.0000
  H   H31       1.0  0.21456  0.33932  0.08307  1.0000
  H   H32       1.0  0.31815  0.26489  0.96826  1.0000
  H   H33       1.0  0.28439  0.83868  0.35393  1.0000
  H   H34       1.0  0.18043  0.77243  0.48813  1.0000
  H   H35       1.0  0.80368  0.32103  0.38875  1.0000
  H   H36       1.0  0.69742  0.25823  0.53946  1.0000
  C   C65       1.0  0.03958  0.46226  0.71974  1.0000
  C   C66       1.0  0.53809  0.96077  0.74941  1.0000
  C   C67       1.0  0.96042  0.46187  0.72641  1.0000
  C   C68       1.0  0.45850  0.96069  0.75589  1.0000
  C   C69       1.0  0.95985  0.53730  0.72509  1.0000
  C   C70       1.0  0.45869  0.03609  0.75629  1.0000
  C   C71       1.0  0.03908  0.53767  0.72046  1.0000
  C   C72       1.0  0.53797  0.03621  0.75001  1.0000
  C   C73       1.0  0.98159  0.42528  0.71634  1.0000
  C   C74       1.0  0.47962  0.92404  0.75128  1.0000
  C   C75       1.0  0.01935  0.42567  0.71046  1.0000
  C   C76       1.0  0.51743  0.92419  0.74547  1.0000
  C   C77       1.0  0.01828  0.57435  0.71504  1.0000
  C   C78       1.0  0.51720  0.07290  0.74666  1.0000
  C   C79       1.0  0.98056  0.57420  0.71931  1.0000
  C   C80       1.0  0.47943  0.07280  0.75384  1.0000
  C   C81       1.0  0.92097  0.46202  0.74186  1.0000
  C   C82       1.0  0.41906  0.96127  0.75986  1.0000
  C   C83       1.0  0.07833  0.46264  0.73004  1.0000
  C   C84       1.0  0.57731  0.96133  0.74897  1.0000
  C   C85       1.0  0.07792  0.53740  0.72929  1.0000
  C   C86       1.0  0.57726  0.03610  0.74766  1.0000
  C   C87       1.0  0.92034  0.53668  0.73965  1.0000
  C   C88       1.0  0.41943  0.03605  0.76064  1.0000
  H   H37       1.0  0.96738  0.39646  0.71454  1.0000
  H   H38       1.0  0.46521  0.89523  0.75272  1.0000
  H   H39       1.0  0.03463  0.39745  0.69922  1.0000
  H   H40       1.0  0.53225  0.89566  0.73563  1.0000
  H   H41       1.0  0.03292  0.60311  0.71011  1.0000
  H   H42       1.0  0.53193  0.10164  0.73840  1.0000
  H   H43       1.0  0.96574  0.60281  0.72078  1.0000
  H   H44       1.0  0.46447  0.10130  0.75606  1.0000
  C   C89       1.0  0.90215  0.49908  0.75162  1.0000
  C   C90       1.0  0.40087  0.99883  0.76610  1.0000
  C   C91       1.0  0.09610  0.50007  0.73339  1.0000
  C   C92       1.0  0.59540  0.99871  0.74763  1.0000
  C   C93       1.0  0.01963  0.49989  0.71925  1.0000
  C   C94       1.0  0.51815  0.99843  0.75275  1.0000
  C   C95       1.0  0.97999  0.49972  0.72178  1.0000
  C   C96       1.0  0.47842  0.99834  0.75533  1.0000
  H   H45       1.0  0.87202  0.49856  0.76008  1.0000
  H   H46       1.0  0.37101  0.99934  0.76475  1.0000
  H   H47       1.0  0.12511  0.50003  0.75007  1.0000
  H   H48       1.0  0.62503  0.99862  0.75361  1.0000
  N   N9        1.0  0.32783  0.17481  0.68948  1.0000
  N   N10       1.0  0.82426  0.67257  0.69844  1.0000
  N   N11       1.0  0.67352  0.16915  0.80557  1.0000
  N   N12       1.0  0.16827  0.67348  0.81605  1.0000
  N   N13       1.0  0.67132  0.82519  0.80978  1.0000
  N   N14       1.0  0.16914  0.32477  0.82742  1.0000
  N   N15       1.0  0.32591  0.82684  0.68653  1.0000
  N   N16       1.0  0.82640  0.32690  0.69559  1.0000
  C   C97       1.0  0.30277  0.18699  0.78845  1.0000
  C   C98       1.0  0.80195  0.68788  0.79963  1.0000
  C   C99       1.0  0.69675  0.18638  0.70534  1.0000
  C   C100      1.0  0.19409  0.68801  0.71880  1.0000
  C   C101      1.0  0.69280  0.81060  0.70466  1.0000
  C   C102      1.0  0.19352  0.31151  0.72767  1.0000
  C   C103      1.0  0.30223  0.81071  0.78830  1.0000
  C   C104      1.0  0.80349  0.30987  0.79739  1.0000
  C   C105      1.0  0.27590  0.21875  0.76602  1.0000
  C   C106      1.0  0.77459  0.71865  0.76704  1.0000
  C   C107      1.0  0.72357  0.21692  0.73604  1.0000
  C   C108      1.0  0.21997  0.71996  0.74144  1.0000
  C   C109      1.0  0.71838  0.77734  0.72824  1.0000
  C   C110      1.0  0.22053  0.27975  0.74939  1.0000
  C   C111      1.0  0.27520  0.78003  0.76480  1.0000
  C   C112      1.0  0.77779  0.27764  0.77046  1.0000
  C   C113      1.0  0.24563  0.22207  0.87482  1.0000
  C   C114      1.0  0.74166  0.72055  0.86331  1.0000
  C   C115      1.0  0.75689  0.22147  0.64248  1.0000
  C   C116      1.0  0.24891  0.72920  0.62916  1.0000
  C   C117      1.0  0.75080  0.77504  0.62972  1.0000
  C   C118      1.0  0.25069  0.27631  0.63995  1.0000
  C   C119      1.0  0.24582  0.77157  0.87568  1.0000
  C   C120      1.0  0.74446  0.27296  0.86454  1.0000
  C   C121      1.0  0.21829  0.25151  0.86917  1.0000
  C   C122      1.0  0.71352  0.74845  0.84595  1.0000
  C   C123      1.0  0.78408  0.25002  0.65845  1.0000
  C   C124      1.0  0.27611  0.75819  0.63785  1.0000
  C   C125      1.0  0.77848  0.74659  0.64610  1.0000
  C   C126      1.0  0.27772  0.24653  0.64493  1.0000
  C   C127      1.0  0.21851  0.74264  0.86685  1.0000
  C   C128      1.0  0.71820  0.24305  0.85216  1.0000
  H   H49       1.0  0.24403  0.20041  0.96730  1.0000
  H   H50       1.0  0.73836  0.69913  0.95621  1.0000
  H   H51       1.0  0.76122  0.20158  0.55289  1.0000
  H   H52       1.0  0.24976  0.71257  0.53126  1.0000
  H   H53       1.0  0.75411  0.79694  0.53782  1.0000
  H   H54       1.0  0.25266  0.29811  0.54784  1.0000
  H   H55       1.0  0.24455  0.78897  0.97212  1.0000
  H   H56       1.0  0.73941  0.29355  0.95214  1.0000
  O   O9        1.0  0.18891  0.25372  0.97580  1.0000
  O   O10       1.0  0.68145  0.74851  0.94105  1.0000
  O   O11       1.0  0.81725  0.25146  0.56968  1.0000
  O   O12       1.0  0.30426  0.76552  0.52860  1.0000
  O   O13       1.0  0.80946  0.74527  0.54702  1.0000
  O   O14       1.0  0.30653  0.24353  0.53725  1.0000
  O   O15       1.0  0.19022  0.73592  0.97600  1.0000
  O   O16       1.0  0.68697  0.23829  0.94953  1.0000
  H   H57       1.0  0.30018  0.17393  0.89989  1.0000
  H   H58       1.0  0.19357  0.23447  0.05377  1.0000
  H   H59       1.0  0.80226  0.67942  0.91459  1.0000
  H   H60       1.0  0.68663  0.73314  0.02781  1.0000
  H   H61       1.0  0.69684  0.18042  0.59099  1.0000
  H   H62       1.0  0.81638  0.23182  0.49611  1.0000
  H   H63       1.0  0.19827  0.67655  0.60945  1.0000
  H   H64       1.0  0.29779  0.75292  0.44311  1.0000
  H   H65       1.0  0.69329  0.82249  0.59228  1.0000
  H   H66       1.0  0.80518  0.76263  0.46380  1.0000
  H   H67       1.0  0.19497  0.32427  0.61621  1.0000
  H   H68       1.0  0.30128  0.26106  0.45578  1.0000
  H   H69       1.0  0.30172  0.81861  0.90157  1.0000
  H   H70       1.0  0.19705  0.74879  0.06043  1.0000
  H   H71       1.0  0.80226  0.31747  0.91087  1.0000
  H   H72       1.0  0.68890  0.25604  0.02804  1.0000
  C   C129      1.0  0.89951  0.36609  0.13440  1.0000
  C   C130      1.0  0.86358  0.35685  0.19981  1.0000
  C  Sn1       1.0  0.84439  0.38374  0.29302  1.0000
  C  Sn2       1.0  0.86156  0.42053  0.32101  1.0000
  C   C131      1.0  0.89751  0.42950  0.25495  1.0000
  C   C132      1.0  0.91646  0.40238  0.16191  1.0000
  H   H73       1.0  0.91417  0.34511  0.06234  1.0000
  O  Te1       1.0  0.80852  0.37403  0.35751  1.0000
  O  Te2       1.0  0.84301  0.44795  0.41367  1.0000
  H   H74       1.0  0.94427  0.40954  0.11120  1.0000
  Mg  Mg1       1.0  0.79456  0.42115  0.47573  1.0000
  C   C133      1.0  0.35610  0.91380  0.35317  1.0000
  C   C134      1.0  0.39098  0.92267  0.27683  1.0000
  C  Sn3       1.0  0.40507  0.89959  0.16119  1.0000
  C  Sn4       1.0  0.38378  0.86705  0.12148  1.0000
  C   C135      1.0  0.34891  0.85843  0.19847  1.0000
  C   C136      1.0  0.33508  0.88172  0.31404  1.0000
  H   H75       1.0  0.34539  0.93182  0.44254  1.0000
  O  Te3       1.0  0.43998  0.90886  0.08611  1.0000
  O  Te4       1.0  0.39719  0.84350  0.00631  1.0000
  H   H76       1.0  0.30807  0.87485  0.37307  1.0000
  Mg  Mg2       1.0  0.41273  0.85375  0.93714  1.0000
  C   C137      1.0  0.14237  0.41836  0.13286  1.0000
  C   C138      1.0  0.10908  0.42423  0.22193  1.0000
  C  Sn5       1.0  0.09754  0.39639  0.33622  1.0000
  C  Sn6       1.0  0.11981  0.36207  0.36157  1.0000
  C   C139      1.0  0.15308  0.35649  0.27191  1.0000
  C   C140      1.0  0.16436  0.38453  0.15782  1.0000
  H   H77       1.0  0.15111  0.44007  0.04464  1.0000
  O  Te5       1.0  0.06419  0.40270  0.42414  1.0000
  O  Te6       1.0  0.10894  0.33378  0.47507  1.0000
  H   H78       1.0  0.19015  0.37999  0.08894  1.0000
  Mg  Mg3       1.0  0.06121  0.35563  0.56507  1.0000
  C   C141      1.0  0.61108  0.86874  0.38089  1.0000
  C   C142      1.0  0.64421  0.86006  0.29486  1.0000
  C  Sn7       1.0  0.65818  0.88681  0.18038  1.0000
  C  Sn8       1.0  0.63855  0.92290  0.15178  1.0000
  C   C143      1.0  0.60544  0.93133  0.23854  1.0000
  C   C144      1.0  0.59172  0.90434  0.35279  1.0000
  H   H79       1.0  0.60047  0.84788  0.46934  1.0000
  O  Te7       1.0  0.69131  0.87766  0.09547  1.0000
  O  Te8       1.0  0.65189  0.95017  0.03809  1.0000
  H   H80       1.0  0.56608  0.91109  0.41943  1.0000
  Mg  Mg4       1.0  0.66468  0.91007  0.95287  1.0000
  C   C145      1.0  0.13972  0.58979  0.14762  1.0000
  C   C146      1.0  0.11022  0.57479  0.24647  1.0000
  C  Sn9       1.0  0.09706  0.59672  0.36631  1.0000
  C  Sn10      1.0  0.11381  0.63435  0.38726  1.0000
  C   C147      1.0  0.14329  0.64911  0.28769  1.0000
  C   C148      1.0  0.15625  0.62692  0.16818  1.0000
  H   H81       1.0  0.14974  0.57263  0.05511  1.0000
  O  Te9       1.0  0.06757  0.58128  0.46404  1.0000
  O  Te10      1.0  0.10120  0.65689  0.50606  1.0000
  H   H82       1.0  0.17908  0.63855  0.09161  1.0000
  Mg  Mg5       1.0  0.06025  0.62316  0.60924  1.0000
  C   C149      1.0  0.65612  0.10314  0.15804  1.0000
  C   C150      1.0  0.65067  0.13663  0.24381  1.0000
  C  Sn11      1.0  0.61888  0.13921  0.34409  1.0000
  C  Sn12      1.0  0.59210  0.10761  0.35856  1.0000
  C   C151      1.0  0.59783  0.07422  0.27232  1.0000
  C   C152      1.0  0.62973  0.07196  0.17228  1.0000
  H   H83       1.0  0.68081  0.10138  0.08069  1.0000
  O  Te11      1.0  0.61387  0.17289  0.42889  1.0000
  O  Te12      1.0  0.56009  0.10940  0.45797  1.0000
  H   H84       1.0  0.63395  0.04601  0.10595  1.0000
  Mg  Mg6       1.0  0.56574  0.16149  0.54903  1.0000
  C   C153      1.0  0.85321  0.57982  0.33354  1.0000
  C   C154      1.0  0.88833  0.57164  0.26150  1.0000
  C  Sn13      1.0  0.90649  0.60043  0.16262  1.0000
  C  Sn14      1.0  0.88910  0.63808  0.13562  1.0000
  C   C155      1.0  0.85398  0.64598  0.20832  1.0000
  C   C156      1.0  0.83605  0.61695  0.30701  1.0000
  H   H85       1.0  0.83935  0.55737  0.40996  1.0000
  O  Te13      1.0  0.94156  0.59176  0.09155  1.0000
  O  Te14      1.0  0.90663  0.66739  0.03737  1.0000
  H   H86       1.0  0.80887  0.62330  0.36284  1.0000
  Mg  Mg7       1.0  0.92069  0.62718  0.96735  1.0000
  C   C157      1.0  0.35588  0.08083  0.36541  1.0000
  C   C158      1.0  0.38935  0.07159  0.28264  1.0000
  C  Sn15      1.0  0.40489  0.09863  0.17169  1.0000
  C  Sn16      1.0  0.38653  0.13559  0.14336  1.0000
  C   C159      1.0  0.35307  0.14457  0.22685  1.0000
  C   C160      1.0  0.33776  0.11729  0.33758  1.0000
  H   H87       1.0  0.34404  0.05974  0.45114  1.0000
  O  Te15      1.0  0.43834  0.08892  0.09000  1.0000
  O  Te16      1.0  0.40145  0.16317  0.03317  1.0000
  H   H88       1.0  0.31186  0.12446  0.40171  1.0000
  Mg  Mg8       1.0  0.41407  0.12205  0.95153  1.0000
  C   C161      1.0  0.88988  0.37154  0.60457  1.0000
  C   C162      1.0  0.85876  0.35859  0.69913  1.0000
  C  Sn17      1.0  0.84635  0.38072  0.81929  1.0000
  C  Sn18      1.0  0.86551  0.41647  0.84494  1.0000
  C   C163      1.0  0.89660  0.42918  0.74964  1.0000
  C   C164      1.0  0.90878  0.40680  0.62976  1.0000
  H   H89       1.0  0.89930  0.35424  0.51177  1.0000
  O  Te17      1.0  0.81522  0.36735  0.91271  1.0000
  O  Te18      1.0  0.85370  0.43917  0.96417  1.0000
  H   H90       1.0  0.93287  0.41684  0.55652  1.0000
  Mg  Mg9       1.0  0.84340  0.42285  0.06040  1.0000
  C   C165      1.0  0.33918  0.89742  0.83508  1.0000
  C   C166      1.0  0.34384  0.86729  0.73468  1.0000
  C  Sn19      1.0  0.37694  0.86476  0.64157  1.0000
  C  Sn20      1.0  0.40588  0.89294  0.64939  1.0000
  C   C167      1.0  0.40096  0.92295  0.75028  1.0000
  C   C168      1.0  0.36772  0.92522  0.84290  1.0000
  H   H91       1.0  0.31347  0.89916  0.90680  1.0000
  O  Te19      1.0  0.38113  0.83448  0.54187  1.0000
  O  Te20      1.0  0.43926  0.89109  0.55766  1.0000
  H   H92       1.0  0.36413  0.94853  0.92069  1.0000
  Mg  Mg10      1.0  0.43173  0.84437  0.43997  1.0000
  C   C169      1.0  0.08845  0.38129  0.85330  1.0000
  C   C170      1.0  0.09759  0.41861  0.78031  1.0000
  C  Sn21      1.0  0.13290  0.42505  0.70425  1.0000
  C  Sn22      1.0  0.15949  0.39348  0.70137  1.0000
  C   C171      1.0  0.15007  0.35624  0.77465  1.0000
  C   C172      1.0  0.11466  0.35013  0.85047  1.0000
  H   H93       1.0  0.06105  0.37655  0.91190  1.0000
  O  Te21      1.0  0.14157  0.46253  0.63196  1.0000
  O  Te22      1.0  0.19498  0.39909  0.62614  1.0000
  H   H94       1.0  0.10759  0.32122  0.90689  1.0000
  Mg  Mg11      1.0  0.19360  0.45552  0.54449  1.0000
  C   C173      1.0  0.65824  0.90179  0.66970  1.0000
  C   C174      1.0  0.65417  0.86799  0.76662  1.0000
  C  Sn23      1.0  0.62113  0.86169  0.85921  1.0000
  C  Sn24      1.0  0.59168  0.88979  0.85441  1.0000
  C   C175      1.0  0.59602  0.92348  0.75700  1.0000
  C   C176      1.0  0.62920  0.92950  0.66486  1.0000
  H   H95       1.0  0.68390  0.90644  0.59835  1.0000
  O  Te23      1.0  0.61753  0.82778  0.95542  1.0000
  O  Te24      1.0  0.55836  0.88421  0.94571  1.0000
  H   H96       1.0  0.63233  0.95565  0.58977  1.0000
  Mg  Mg12      1.0  0.60034  0.84760  0.05811  1.0000
  C   C177      1.0  0.08965  0.61308  0.86241  1.0000
  C   C178      1.0  0.09560  0.58265  0.76355  1.0000
  C  Sn25      1.0  0.12954  0.58009  0.67561  1.0000
  C  Sn26      1.0  0.15799  0.60857  0.68713  1.0000
  C   C179      1.0  0.15177  0.63888  0.78644  1.0000
  C   C180      1.0  0.11771  0.64117  0.87387  1.0000
  H   H97       1.0  0.06330  0.61484  0.93012  1.0000
  O  Te25      1.0  0.13501  0.54951  0.57739  1.0000
  O  Te26      1.0  0.19218  0.60671  0.60059  1.0000
  H   H98       1.0  0.11312  0.66472  0.95047  1.0000
  Mg  Mg13      1.0  0.18634  0.55951  0.48302  1.0000
  C   C181      1.0  0.59222  0.11352  0.86372  1.0000
  C   C182      1.0  0.59583  0.08229  0.76753  1.0000
  C  Sn27      1.0  0.62865  0.07797  0.67413  1.0000
  C  Sn28      1.0  0.65839  0.10547  0.67736  1.0000
  C   C183      1.0  0.65452  0.13659  0.77406  1.0000
  C   C184      1.0  0.62154  0.14064  0.86702  1.0000
  H   H99       1.0  0.56672  0.11664  0.93570  1.0000
  O  Te27      1.0  0.63178  0.04661  0.57867  1.0000
  O  Te28      1.0  0.69151  0.10185  0.58524  1.0000
  H   H100      1.0  0.61877  0.16481  0.94154  1.0000
  Mg  Mg14      1.0  0.68243  0.05418  0.47436  1.0000
  C   C185      1.0  0.90130  0.61439  0.60997  1.0000
  C   C186      1.0  0.90088  0.58244  0.71397  1.0000
  C  Sn29      1.0  0.87205  0.57895  0.82807  1.0000
  C  Sn30      1.0  0.84314  0.60801  0.83792  1.0000
  C   C187      1.0  0.84380  0.63985  0.73327  1.0000
  C   C188      1.0  0.87279  0.64307  0.61958  1.0000
  H   H101      1.0  0.92372  0.61688  0.52196  1.0000
  O  Te29      1.0  0.87206  0.54685  0.93107  1.0000
  O  Te30      1.0  0.81398  0.60523  0.95079  1.0000
  H   H102      1.0  0.87310  0.66779  0.53902  1.0000
  Mg  Mg15      1.0  0.85987  0.57028  0.06475  1.0000
  C   C189      1.0  0.34265  0.10150  0.84943  1.0000
  C   C190      1.0  0.34778  0.13538  0.75320  1.0000
  C  Sn31      1.0  0.37861  0.13788  0.64725  1.0000
  C  Sn32      1.0  0.40473  0.10581  0.63769  1.0000
  C   C191      1.0  0.39933  0.07202  0.73440  1.0000
  C   C192      1.0  0.36839  0.06984  0.84004  1.0000
  H   H103      1.0  0.31871  0.09979  0.93111  1.0000
  O  Te31      1.0  0.38332  0.17196  0.55202  1.0000
  O  Te32      1.0  0.43577  0.10752  0.53280  1.0000
  H   H104      1.0  0.36441  0.04359  0.91446  1.0000
  Mg  Mg16      1.0  0.43006  0.16027  0.42768  1.0000
