data_image0
_chemical_formula_structural       ONC3H2ONC3H2ONC3H2ONC3H2ONC3H2ONC3H2N6ONC3H2ONC3H2ONC3H2ONC3H2ONC3H2ONC3H2N6C2Sn2C2HTe2HMgC2Sn2C2HTe2HMgC2Sn2C2HTe2HMgC2Sn2C2HTe2HMgC2Sn2C2HTe2HMgC2Sn2C2HTe2HMgC2Sn2C2HTe2HMgC2Sn2C2HTe2HMgC2Sn2C2HTe2HMgC2Sn2C2HTe2HMgC2Sn2C2HTe2HMgC2Sn2C2HTe2HMg
_chemical_formula_sum              "O12 N24 C84 H48 Sn24 Te24 Mg12"
_cell_length_a       33.4249
_cell_length_b       33.3429
_cell_length_c       8.02881
_cell_angle_alpha    64.861
_cell_angle_beta     121.903
_cell_angle_gamma    119.827

_symmetry_space_group_name_H-M    'P1'
_space_group_IT_number       1

loop_
  _space_group_symop_operation_xyz
  'x, y, z'

loop_
  _atom_site_type_symbol
  _atom_site_label
  _atom_site_symmetry_multiplicity
  _atom_site_fract_x
  _atom_site_fract_y
  _atom_site_fract_z
  _atom_site_occupancy
  O   O1        1.0  0.30530  0.57469  0.98982  1.0000
  N   N1        1.0  0.38940  0.59828  0.97093  1.0000
  C   C1        1.0  0.31769  0.61738  0.99039  1.0000
  C   C2        1.0  0.39943  0.64177  0.97851  1.0000
  C   C3        1.0  0.36581  0.65307  0.98707  1.0000
  H   H1        1.0  0.43507  0.66967  0.97801  1.0000
  H   H2        1.0  0.35410  0.57503  0.97483  1.0000
  O   O2        1.0  0.42457  0.73166  0.00155  1.0000
  N   N2        1.0  0.40362  0.79446  0.01723  1.0000
  C   C4        1.0  0.38145  0.70168  0.99694  1.0000
  C   C5        1.0  0.35914  0.76032  0.01163  1.0000
  C   C6        1.0  0.34650  0.71467  0.00130  1.0000
  H   H3        1.0  0.33164  0.76800  0.01584  1.0000
  H   H4        1.0  0.42614  0.78126  0.01546  1.0000
  O   O3        1.0  0.26737  0.69270  0.00317  1.0000
  N   N3        1.0  0.20471  0.60636  0.00797  1.0000
  C   C7        1.0  0.29724  0.68041  0.99949  1.0000
  C   C8        1.0  0.23847  0.59725  0.00092  1.0000
  C   C9        1.0  0.28402  0.63199  0.99638  1.0000
  H   H5        1.0  0.23044  0.56156  0.99867  1.0000
  H   H6        1.0  0.21795  0.64219  0.01035  1.0000
  O   O4        1.0  0.69895  0.42634  0.00446  1.0000
  N   N4        1.0  0.61568  0.40767  0.02123  1.0000
  C   C10       1.0  0.68445  0.38307  0.00549  1.0000
  C   C11       1.0  0.60382  0.36333  0.01673  1.0000
  C   C12       1.0  0.63575  0.34940  0.01022  1.0000
  H   H7        1.0  0.56761  0.33681  0.01738  1.0000
  H   H8        1.0  0.65107  0.42959  0.01666  1.0000
  O   O5        1.0  0.57382  0.27192  0.99631  1.0000
  N   N5        1.0  0.59103  0.20507  0.99023  1.0000
  C   C13       1.0  0.61755  0.30007  0.00231  1.0000
  C   C14       1.0  0.63605  0.23776  0.99478  1.0000
  C   C15       1.0  0.65078  0.28426  0.00091  1.0000
  H   H9        1.0  0.66245  0.22804  0.99309  1.0000
  H   H10       1.0  0.56944  0.21990  0.98855  1.0000
  O   O6        1.0  0.72852  0.30164  0.99828  1.0000
  N   N6        1.0  0.79399  0.38719  0.98326  1.0000
  C   C16       1.0  0.70044  0.31644  0.00061  1.0000
  C   C17       1.0  0.76196  0.39863  0.99160  1.0000
  C   C18       1.0  0.71609  0.36574  0.99989  1.0000
  H   H11       1.0  0.77177  0.43504  0.99130  1.0000
  H   H12       1.0  0.77940  0.35104  0.98368  1.0000
  N   N7        1.0  0.51318  0.52768  0.99002  1.0000
  N   N8        1.0  0.47279  0.98676  0.00514  1.0000
  N   N9        1.0  0.01173  0.48536  0.98571  1.0000
  N   N10       1.0  0.49533  0.48315  0.99684  1.0000
  N   N11       1.0  0.51760  0.01164  0.01301  1.0000
  N   N12       1.0  0.98616  0.50381  0.98695  1.0000
  O   O7        1.0  0.30300  0.57402  0.49036  1.0000
  N   N13       1.0  0.38673  0.59487  0.47295  1.0000
  C   C19       1.0  0.31669  0.61705  0.49040  1.0000
  C   C20       1.0  0.39798  0.63883  0.47979  1.0000
  C   C21       1.0  0.36528  0.65157  0.48742  1.0000
  H   H13       1.0  0.43404  0.66592  0.48003  1.0000
  H   H14       1.0  0.35131  0.57249  0.47694  1.0000
  O   O8        1.0  0.42627  0.72930  0.50596  1.0000
  N   N14       1.0  0.40764  0.79440  0.51621  1.0000
  C   C22       1.0  0.38255  0.70047  0.49825  1.0000
  C   C23       1.0  0.36292  0.76112  0.51215  1.0000
  C   C24       1.0  0.34866  0.71506  0.50159  1.0000
  H   H15       1.0  0.33643  0.76995  0.51779  1.0000
  H   H16       1.0  0.42938  0.78025  0.51460  1.0000
  O   O9        1.0  0.27039  0.69544  0.50571  1.0000
  N   N15       1.0  0.20523  0.61016  0.50690  1.0000
  C   C25       1.0  0.29909  0.68197  0.50031  1.0000
  C   C26       1.0  0.23800  0.59972  0.49887  1.0000
  C   C27       1.0  0.28414  0.63322  0.49593  1.0000
  H   H17       1.0  0.22866  0.56380  0.49466  1.0000
  H   H18       1.0  0.21979  0.64597  0.51209  1.0000
  O   O10       1.0  0.69665  0.42585  0.50630  1.0000
  N   N16       1.0  0.61286  0.40418  0.52357  1.0000
  C   C28       1.0  0.68346  0.38290  0.50648  1.0000
  C   C29       1.0  0.60223  0.36024  0.51900  1.0000
  C   C30       1.0  0.63526  0.34791  0.51163  1.0000
  H   H19       1.0  0.56648  0.33275  0.52043  1.0000
  H   H20       1.0  0.64809  0.42691  0.51802  1.0000
  O   O11       1.0  0.57569  0.26944  0.50254  1.0000
  N   N17       1.0  0.59547  0.20476  0.49557  1.0000
  C   C31       1.0  0.61882  0.29887  0.50500  1.0000
  C   C32       1.0  0.63976  0.23852  0.49632  1.0000
  C   C33       1.0  0.65303  0.28476  0.50160  1.0000
  H   H21       1.0  0.66673  0.23001  0.49252  1.0000
  H   H22       1.0  0.57338  0.21861  0.49654  1.0000
  O   O12       1.0  0.73125  0.30511  0.49555  1.0000
  N   N18       1.0  0.79426  0.39139  0.47980  1.0000
  C   C34       1.0  0.70215  0.31835  0.49950  1.0000
  C   C35       1.0  0.76146  0.40142  0.48945  1.0000
  C   C36       1.0  0.71617  0.36726  0.49923  1.0000
  H   H23       1.0  0.77007  0.43749  0.48917  1.0000
  H   H24       1.0  0.78058  0.35533  0.48021  1.0000
  N   N19       1.0  0.50744  0.52112  0.48957  1.0000
  N   N20       1.0  0.48058  0.98669  0.51131  1.0000
  N   N21       1.0  0.01145  0.49246  0.48291  1.0000
  N   N22       1.0  0.48960  0.47664  0.49596  1.0000
  N   N23       1.0  0.52440  0.01212  0.50875  1.0000
  N   N24       1.0  0.98593  0.51092  0.48431  1.0000
  C   C37       1.0  0.49525  0.60324  0.96139  1.0000
  C   C38       1.0  0.48694  0.55573  0.99165  1.0000
  C  Sn1       1.0  0.34066  0.57217  0.00276  1.0000
  C  Sn2       1.0  0.40454  0.53289  0.98311  1.0000
  C   C39       1.0  0.41321  0.58053  0.95273  1.0000
  C   C40       1.0  0.45842  0.61564  0.94191  1.0000
  H   H25       1.0  0.53022  0.63042  0.95290  1.0000
  O  Te1       1.0  0.33297  0.52486  0.03313  1.0000
  O  Te2       1.0  0.35918  0.49825  0.99355  1.0000
  H   H26       1.0  0.46483  0.65243  0.91835  1.0000
  Mg  Mg1       1.0  0.26504  0.49048  0.03679  1.0000
  C   C41       1.0  0.38954  0.87112  0.02148  1.0000
  C   C42       1.0  0.41063  0.84575  0.00973  1.0000
  C  Sn3       1.0  0.45861  0.86784  0.00829  1.0000
  C  Sn4       1.0  0.48590  0.91623  0.01887  1.0000
  C   C43       1.0  0.46448  0.94130  0.03073  1.0000
  C   C44       1.0  0.41644  0.91885  0.03200  1.0000
  H   H27       1.0  0.35238  0.85375  0.02258  1.0000
  O  Te3       1.0  0.58035  0.79015  0.99641  1.0000
  O  Te4       1.0  0.53393  0.93918  0.01777  1.0000
  H   H28       1.0  0.40013  0.93850  0.04123  1.0000
  Mg  Mg2       1.0  0.64705  0.83708  0.99959  1.0000
  C   C45       1.0  0.12787  0.51538  0.99815  1.0000
  C   C46       1.0  0.15301  0.56378  0.99578  1.0000
  C  Sn5       1.0  0.02981  0.64107  0.00153  1.0000
  C  Sn6       1.0  0.98178  0.61755  0.00985  1.0000
  C   C47       1.0  0.95695  0.56911  0.01230  1.0000
  C   C48       1.0  0.97927  0.54396  0.00644  1.0000
  H   H29       1.0  0.14514  0.49591  0.99373  1.0000
  O  Te5       1.0  0.15668  0.63760  0.99898  1.0000
  O  Te6       1.0  0.95897  0.64215  0.01579  1.0000
  H   H30       1.0  0.95980  0.50648  0.00841  1.0000
  Mg  Mg3       1.0  0.00882  0.70761  0.00928  1.0000
  C   C49       1.0  0.60103  0.48611  0.98702  1.0000
  C   C50       1.0  0.49120  0.48999  0.02475  1.0000
  C  Sn7       1.0  0.44684  0.45527  0.04492  1.0000
  C  Sn8       1.0  0.41047  0.46891  0.02687  1.0000
  C   C51       1.0  0.52064  0.46514  0.98898  1.0000
  C   C52       1.0  0.56516  0.49959  0.96912  1.0000
  H   H31       1.0  0.63546  0.51277  0.97154  1.0000
  O  Te7       1.0  0.43886  0.40754  0.08266  1.0000
  O  Te8       1.0  0.36580  0.43494  0.04630  1.0000
  H   H32       1.0  0.57179  0.53670  0.93978  1.0000
  Mg  Mg4       1.0  0.37215  0.37439  0.09731  1.0000
  C   C53       1.0  0.60408  0.12528  0.01006  1.0000
  C   C54       1.0  0.68197  0.10199  0.98383  1.0000
  C  Sn9       1.0  0.63312  0.08184  0.97539  1.0000
  C  Sn10      1.0  0.60727  0.03219  0.99364  1.0000
  C   C55       1.0  0.52974  0.05577  0.01997  1.0000
  C   C56       1.0  0.57862  0.07630  0.02815  1.0000
  H   H33       1.0  0.64191  0.14115  0.01649  1.0000
  O  Te9       1.0  0.61035  0.11086  0.94904  1.0000
  O  Te10      1.0  0.55844  0.01113  0.98580  1.0000
  H   H34       1.0  0.59669  0.05420  0.04859  1.0000
  Mg  Mg5       1.0  0.54332  0.06556  0.94777  1.0000
  C   C57       1.0  0.90669  0.41244  0.97611  1.0000
  C   C58       1.0  0.93311  0.46087  0.97112  1.0000
  C  Sn11      1.0  0.91307  0.48779  0.97923  1.0000
  C  Sn12      1.0  0.86571  0.46571  0.99263  1.0000
  C   C59       1.0  0.83959  0.41723  0.99768  1.0000
  C   C60       1.0  0.85998  0.39063  0.98941  1.0000
  H   H35       1.0  0.92247  0.39185  0.96983  1.0000
  O  Te11      1.0  0.93996  0.53614  0.97401  1.0000
  O  Te12      1.0  0.74359  0.54359  0.00103  1.0000
  H   H36       1.0  0.83953  0.35313  0.99341  1.0000
  Mg  Mg6       1.0  0.89582  0.55663  0.98929  1.0000
  C   C61       1.0  0.49098  0.59729  0.46142  1.0000
  C   C62       1.0  0.48164  0.54956  0.49028  1.0000
  C  Sn13      1.0  0.43639  0.51482  0.50182  1.0000
  C  Sn14      1.0  0.39988  0.52823  0.48403  1.0000
  C   C63       1.0  0.40957  0.57608  0.45503  1.0000
  C   C64       1.0  0.45498  0.61055  0.44377  1.0000
  H   H37       1.0  0.52610  0.62397  0.45259  1.0000
  O  Te13      1.0  0.42767  0.46729  0.53078  1.0000
  O  Te14      1.0  0.35433  0.49423  0.49493  1.0000
  H   H38       1.0  0.46219  0.64750  0.42129  1.0000
  Mg  Mg7       1.0  0.35989  0.43402  0.53577  1.0000
  C   C65       1.0  0.49560  0.90777  0.52291  1.0000
  C   C66       1.0  0.47263  0.93520  0.50840  1.0000
  C  Sn15      1.0  0.42486  0.91389  0.51133  1.0000
  C  Sn16      1.0  0.39972  0.86419  0.52920  1.0000
  C   C67       1.0  0.42304  0.83706  0.54377  1.0000
  C   C68       1.0  0.47084  0.85874  0.54062  1.0000
  H   H39       1.0  0.53260  0.92455  0.52059  1.0000
  O  Te15      1.0  0.40245  0.94182  0.49660  1.0000
  O  Te16      1.0  0.35196  0.84198  0.53259  1.0000
  H   H40       1.0  0.48863  0.83749  0.55199  1.0000
  Mg  Mg8       1.0  0.33696  0.89518  0.50804  1.0000
  C   C69       1.0  0.09899  0.50658  0.47549  1.0000
  C   C70       1.0  0.06710  0.51741  0.49883  1.0000
  C  Sn17      1.0  0.08101  0.56276  0.51827  1.0000
  C  Sn18      1.0  0.12773  0.59786  0.51415  1.0000
  C   C71       1.0  0.15935  0.58669  0.49059  1.0000
  C   C72       1.0  0.14507  0.54118  0.47133  1.0000
  H   H41       1.0  0.08793  0.47138  0.46048  1.0000
  O  Te17      1.0  0.04871  0.57298  0.54155  1.0000
  O  Te18      1.0  0.14256  0.64348  0.53317  1.0000
  H   H42       1.0  0.16975  0.53282  0.45313  1.0000
  Mg  Mg9       1.0  0.08562  0.64024  0.56167  1.0000
  C   C73       1.0  0.52412  0.38958  0.54208  1.0000
  C   C74       1.0  0.56931  0.41249  0.51653  1.0000
  C  Sn19      1.0  0.59261  0.46170  0.49066  1.0000
  C  Sn20      1.0  0.57018  0.48836  0.49049  1.0000
  C   C75       1.0  0.52500  0.46510  0.51631  1.0000
  C   C76       1.0  0.50199  0.41585  0.54201  1.0000
  H   H43       1.0  0.50633  0.35147  0.56208  1.0000
  O  Te19      1.0  0.63773  0.48403  0.46525  1.0000
  O  Te20      1.0  0.59268  0.53758  0.46501  1.0000
  H   H44       1.0  0.46703  0.39811  0.56192  1.0000
  Mg  Mg10      1.0  0.65397  0.55184  0.43589  1.0000
  C   C77       1.0  0.59691  0.10142  0.48771  1.0000
  C   C78       1.0  0.55307  0.06626  0.51131  1.0000
  C  Sn21      1.0  0.51949  0.07821  0.51826  1.0000
  C  Sn22      1.0  0.53008  0.12628  0.50117  1.0000
  C   C79       1.0  0.57402  0.16120  0.47745  1.0000
  C   C80       1.0  0.60737  0.14884  0.47075  1.0000
  H   H45       1.0  0.62270  0.09187  0.48241  1.0000
  O  Te21      1.0  0.47588  0.04264  0.54200  1.0000
  O  Te22      1.0  0.49716  0.13922  0.50755  1.0000
  H   H46       1.0  0.64129  0.17607  0.45234  1.0000
  Mg  Mg11      1.0  0.44264  0.07795  0.54210  1.0000
  C   C81       1.0  0.90757  0.41917  0.47301  1.0000
  C   C82       1.0  0.93309  0.46767  0.46798  1.0000
  C  Sn23      1.0  0.91215  0.49368  0.47660  1.0000
  C  Sn24      1.0  0.86479  0.47060  0.49058  1.0000
  C   C83       1.0  0.83958  0.42206  0.49565  1.0000
  C   C84       1.0  0.86087  0.39638  0.48687  1.0000
  H   H47       1.0  0.92405  0.39930  0.46632  1.0000
  O  Te23      1.0  0.93814  0.54211  0.47134  1.0000
  O  Te24      1.0  0.84302  0.49573  0.49950  1.0000
  H   H48       1.0  0.84112  0.35882  0.49089  1.0000
  Mg  Mg12      1.0  0.89299  0.56111  0.48746  1.0000
