data_image0
_chemical_formula_structural       ONC9H6ONC9H6ONC3H2ONC3H2ONC9H6ONC3H2N6ONC9H6ONC9H6ONC3H2ONC9H6ONC3H2ONC3H2N6SnCSn2CSnTe4Mg2SnCSn2CSnTe4Mg2SnCSn2CSnTe4Mg2SnCSn2CSnTe4Mg2SnCSn2CSnTe4Mg2SnCSn2CSnTe4Mg2
_chemical_formula_sum              "O12 N24 C84 H48 Sn24 Te24 Mg12"
_cell_length_a       33.4249
_cell_length_b       33.3429
_cell_length_c       8.02881
_cell_angle_alpha    64.861
_cell_angle_beta     121.903
_cell_angle_gamma    119.827

_symmetry_space_group_name_H-M    'P1'
_space_group_IT_number       1

loop_
  _space_group_symop_operation_xyz
  'x, y, z'

loop_
  _atom_site_type_symbol
  _atom_site_label
  _atom_site_symmetry_multiplicity
  _atom_site_fract_x
  _atom_site_fract_y
  _atom_site_fract_z
  _atom_site_occupancy
  O   O1        1.0  0.30530  0.57469  0.98982  1.0000
  N   N1        1.0  0.38940  0.59828  0.97093  1.0000
  C   C1        1.0  0.31769  0.61738  0.99039  1.0000
  C   C2        1.0  0.39943  0.64177  0.97851  1.0000
  C   C3        1.0  0.42071  0.58214  0.97108  1.0000
  C   C4        1.0  0.46789  0.61183  0.96239  1.0000
  C   C5        1.0  0.49738  0.59236  0.97028  1.0000
  C   C6        1.0  0.48046  0.54355  0.98374  1.0000
  C   C7        1.0  0.43275  0.51417  0.98941  1.0000
  C   C8        1.0  0.40339  0.53326  0.98286  1.0000
  C   C9        1.0  0.36581  0.65307  0.98707  1.0000
  H   H1        1.0  0.43507  0.66967  0.97801  1.0000
  H   H2        1.0  0.48142  0.64967  0.95039  1.0000
  H   H3        1.0  0.35410  0.57503  0.97483  1.0000
  H   H4        1.0  0.36683  0.51083  0.99006  1.0000
  H   H5        1.0  0.53407  0.61458  0.96431  1.0000
  H   H6        1.0  0.42013  0.47651  0.00039  1.0000
  O   O2        1.0  0.42457  0.73166  0.00155  1.0000
  N   N2        1.0  0.40362  0.79446  0.01723  1.0000
  C   C10       1.0  0.38145  0.70168  0.99694  1.0000
  C   C11       1.0  0.35914  0.76032  0.01163  1.0000
  C   C12       1.0  0.42045  0.84173  0.02142  1.0000
  C   C13       1.0  0.39100  0.86121  0.01723  1.0000
  C   C14       1.0  0.40972  0.90920  0.01299  1.0000
  C   C15       1.0  0.45782  0.93866  0.01270  1.0000
  C   C16       1.0  0.48739  0.91879  0.01907  1.0000
  C   C17       1.0  0.46897  0.87106  0.02365  1.0000
  C   C18       1.0  0.34650  0.71467  0.00130  1.0000
  H   H7        1.0  0.33164  0.76800  0.01584  1.0000
  H   H8        1.0  0.35378  0.83908  0.01752  1.0000
  H   H9        1.0  0.42614  0.78126  0.01546  1.0000
  H   H10       1.0  0.49127  0.85576  0.02451  1.0000
  H   H11       1.0  0.38763  0.92490  0.01085  1.0000
  H   H12       1.0  0.52420  0.94197  0.01631  1.0000
  O   O3        1.0  0.26737  0.69270  0.00317  1.0000
  N   N3        1.0  0.20471  0.60636  0.00797  1.0000
  C   C19       1.0  0.29724  0.68041  0.99949  1.0000
  C   C20       1.0  0.23847  0.59725  0.00092  1.0000
  C   C21       1.0  0.28402  0.63199  0.99638  1.0000
  H   H13       1.0  0.23044  0.56156  0.99867  1.0000
  H   H14       1.0  0.21795  0.64219  0.01035  1.0000
  O   O4        1.0  0.69895  0.42634  0.00446  1.0000
  N   N4        1.0  0.61568  0.40767  0.02123  1.0000
  C   C22       1.0  0.68445  0.38307  0.00549  1.0000
  C   C23       1.0  0.60382  0.36333  0.01673  1.0000
  C   C24       1.0  0.63575  0.34940  0.01022  1.0000
  H   H15       1.0  0.56761  0.33681  0.01738  1.0000
  H   H16       1.0  0.65107  0.42959  0.01666  1.0000
  O   O5        1.0  0.57382  0.27192  0.99631  1.0000
  N   N5        1.0  0.59103  0.20507  0.99023  1.0000
  C   C25       1.0  0.61755  0.30007  0.00231  1.0000
  C   C26       1.0  0.63605  0.23776  0.99478  1.0000
  C   C27       1.0  0.57293  0.15729  0.99025  1.0000
  C   C28       1.0  0.60186  0.13603  0.00212  1.0000
  C   C29       1.0  0.58189  0.08784  0.00845  1.0000
  C   C30       1.0  0.53316  0.05985  0.00404  1.0000
  C   C31       1.0  0.50410  0.08147  0.99009  1.0000
  C   C32       1.0  0.52374  0.12953  0.98284  1.0000
  C   C33       1.0  0.65078  0.28426  0.00091  1.0000
  H   H17       1.0  0.66245  0.22804  0.99309  1.0000
  H   H18       1.0  0.63961  0.15683  0.00603  1.0000
  H   H19       1.0  0.56944  0.21990  0.98855  1.0000
  H   H20       1.0  0.50180  0.14646  0.97415  1.0000
  H   H21       1.0  0.60340  0.07064  0.01603  1.0000
  H   H22       1.0  0.46660  0.05957  0.98772  1.0000
  O   O6        1.0  0.72852  0.30164  0.99828  1.0000
  N   N6        1.0  0.79399  0.38719  0.98326  1.0000
  C   C34       1.0  0.70044  0.31644  0.00061  1.0000
  C   C35       1.0  0.76196  0.39863  0.99160  1.0000
  C   C36       1.0  0.71609  0.36574  0.99989  1.0000
  H   H23       1.0  0.77177  0.43504  0.99130  1.0000
  H   H24       1.0  0.77940  0.35104  0.98368  1.0000
  N   N7        1.0  0.51318  0.52768  0.99002  1.0000
  N   N8        1.0  0.47279  0.98676  0.00514  1.0000
  N   N9        1.0  0.01173  0.48536  0.98571  1.0000
  N   N10       1.0  0.49533  0.48315  0.99684  1.0000
  N   N11       1.0  0.51760  0.01164  0.01301  1.0000
  N   N12       1.0  0.98616  0.50381  0.98695  1.0000
  O   O7        1.0  0.30300  0.57402  0.49036  1.0000
  N   N13       1.0  0.38673  0.59487  0.47295  1.0000
  C   C37       1.0  0.31669  0.61705  0.49040  1.0000
  C   C38       1.0  0.39798  0.63883  0.47979  1.0000
  C   C39       1.0  0.41698  0.57756  0.47233  1.0000
  C   C40       1.0  0.46424  0.60649  0.46332  1.0000
  C   C41       1.0  0.49282  0.58628  0.46984  1.0000
  C   C42       1.0  0.47510  0.53734  0.48351  1.0000
  C   C43       1.0  0.42743  0.50858  0.49058  1.0000
  C   C44       1.0  0.39877  0.52852  0.48404  1.0000
  C   C45       1.0  0.36528  0.65157  0.48742  1.0000
  H   H25       1.0  0.43404  0.66592  0.48003  1.0000
  H   H26       1.0  0.47858  0.64438  0.45215  1.0000
  H   H27       1.0  0.35131  0.57249  0.47694  1.0000
  H   H28       1.0  0.36210  0.50669  0.49103  1.0000
  H   H29       1.0  0.52945  0.60787  0.46268  1.0000
  H   H30       1.0  0.41417  0.47079  0.50211  1.0000
  O   O8        1.0  0.42627  0.72930  0.50596  1.0000
  N   N14       1.0  0.40764  0.79440  0.51621  1.0000
  C   C46       1.0  0.38255  0.70047  0.49825  1.0000
  C   C47       1.0  0.36292  0.76112  0.51215  1.0000
  C   C48       1.0  0.42571  0.84177  0.52205  1.0000
  C   C49       1.0  0.39768  0.86176  0.52450  1.0000
  C   C50       1.0  0.41742  0.90972  0.52209  1.0000
  C   C51       1.0  0.46508  0.93870  0.51663  1.0000
  C   C52       1.0  0.49338  0.91831  0.51738  1.0000
  C   C53       1.0  0.47397  0.87051  0.52048  1.0000
  C   C54       1.0  0.34866  0.71506  0.50159  1.0000
  H   H31       1.0  0.33643  0.76995  0.51779  1.0000
  H   H32       1.0  0.36088  0.84008  0.52954  1.0000
  H   H33       1.0  0.42938  0.78025  0.51460  1.0000
  H   H34       1.0  0.49521  0.85464  0.51762  1.0000
  H   H35       1.0  0.39654  0.92584  0.52564  1.0000
  H   H36       1.0  0.53003  0.94105  0.51194  1.0000
  O   O9        1.0  0.27039  0.69544  0.50571  1.0000
  N   N15       1.0  0.20523  0.61016  0.50690  1.0000
  C   C55       1.0  0.29909  0.68197  0.50031  1.0000
  C   C56       1.0  0.23800  0.59972  0.49887  1.0000
  C   C57       1.0  0.28414  0.63322  0.49593  1.0000
  H   H37       1.0  0.22866  0.56380  0.49466  1.0000
  H   H38       1.0  0.21979  0.64597  0.51209  1.0000
  O   O10       1.0  0.69665  0.42585  0.50630  1.0000
  N   N16       1.0  0.61286  0.40418  0.52357  1.0000
  C   C58       1.0  0.68346  0.38290  0.50648  1.0000
  C   C59       1.0  0.60223  0.36024  0.51900  1.0000
  C   C60       1.0  0.58189  0.42112  0.52097  1.0000
  C   C61       1.0  0.53540  0.39157  0.53612  1.0000
  C   C62       1.0  0.50594  0.41147  0.52536  1.0000
  C   C63       1.0  0.52223  0.46062  0.50272  1.0000
  C   C64       1.0  0.56919  0.48997  0.48985  1.0000
  C   C65       1.0  0.59857  0.47040  0.49942  1.0000
  C   C66       1.0  0.63526  0.34791  0.51163  1.0000
  H   H39       1.0  0.56648  0.33275  0.52043  1.0000
  H   H40       1.0  0.52251  0.35345  0.55642  1.0000
  H   H41       1.0  0.64809  0.42691  0.51802  1.0000
  H   H42       1.0  0.63450  0.49273  0.48651  1.0000
  H   H43       1.0  0.46986  0.38944  0.53708  1.0000
  H   H44       1.0  0.58110  0.52791  0.47034  1.0000
  O   O11       1.0  0.57569  0.26944  0.50254  1.0000
  N   N17       1.0  0.59547  0.20476  0.49557  1.0000
  C   C67       1.0  0.61882  0.29887  0.50500  1.0000
  C   C68       1.0  0.63976  0.23852  0.49632  1.0000
  C   C69       1.0  0.65303  0.28476  0.50160  1.0000
  H   H45       1.0  0.66673  0.23001  0.49252  1.0000
  H   H46       1.0  0.57338  0.21861  0.49654  1.0000
  O   O12       1.0  0.73125  0.30511  0.49555  1.0000
  N   N18       1.0  0.79426  0.39139  0.47980  1.0000
  C   C70       1.0  0.70215  0.31835  0.49950  1.0000
  C   C71       1.0  0.76146  0.40142  0.48945  1.0000
  C   C72       1.0  0.71617  0.36726  0.49923  1.0000
  H   H47       1.0  0.77007  0.43749  0.48917  1.0000
  H   H48       1.0  0.78058  0.35533  0.48021  1.0000
  N   N19       1.0  0.50744  0.52112  0.48957  1.0000
  N   N20       1.0  0.48058  0.98669  0.51131  1.0000
  N   N21       1.0  0.01145  0.49246  0.48291  1.0000
  N   N22       1.0  0.48960  0.47664  0.49596  1.0000
  N   N23       1.0  0.52440  0.01212  0.50875  1.0000
  N   N24       1.0  0.98593  0.51092  0.48431  1.0000
  C  Sn1       1.0  0.62463  0.34776  0.97430  1.0000
  C   C73       1.0  0.67206  0.37028  0.96743  1.0000
  C  Sn2       1.0  0.70134  0.41652  0.99627  1.0000
  C  Sn3       1.0  0.58162  0.49257  0.03287  1.0000
  C   C74       1.0  0.53423  0.47005  0.03976  1.0000
  C  Sn4       1.0  0.50491  0.42381  0.01090  1.0000
  O  Te1       1.0  0.59601  0.30152  0.94505  1.0000
  O  Te2       1.0  0.74864  0.43830  0.98865  1.0000
  O  Te3       1.0  0.61029  0.53885  0.06212  1.0000
  O  Te4       1.0  0.45765  0.40203  0.01854  1.0000
  Mg  Mg1       1.0  0.67234  0.55345  0.03788  1.0000
  Mg  Mg2       1.0  0.53393  0.28688  0.96944  1.0000
  C  Sn5       1.0  0.90065  0.41984  0.91076  1.0000
  C   C75       1.0  0.92845  0.46711  0.92678  1.0000
  C  Sn6       1.0  0.91421  0.48947  0.98893  1.0000
  C  Sn7       1.0  0.77007  0.51586  0.03618  1.0000
  C   C76       1.0  0.74230  0.46862  0.02018  1.0000
  C  Sn8       1.0  0.85774  0.39442  0.95801  1.0000
  O  Te5       1.0  0.91557  0.39820  0.84834  1.0000
  O  Te6       1.0  0.84135  0.58857  0.00375  1.0000
  O  Te7       1.0  0.75516  0.53755  0.09863  1.0000
  O  Te8       1.0  0.82940  0.34716  0.94322  1.0000
  Mg  Mg3       1.0  0.80596  0.60253  0.09553  1.0000
  Mg  Mg4       1.0  0.86477  0.33316  0.85155  1.0000
  C  Sn9       1.0  0.90140  0.42654  0.40768  1.0000
  C   C77       1.0  0.92830  0.47386  0.42367  1.0000
  C  Sn10      1.0  0.91324  0.49533  0.48632  1.0000
  C  Sn11      1.0  0.87041  0.46895  0.53411  1.0000
  C   C78       1.0  0.84354  0.42166  0.51814  1.0000
  C  Sn12      1.0  0.85857  0.40016  0.45546  1.0000
  O  Te9       1.0  0.91714  0.40579  0.34475  1.0000
  O  Te10      1.0  0.94073  0.54269  0.50110  1.0000
  O  Te11      1.0  0.85469  0.48974  0.59707  1.0000
  O  Te12      1.0  0.83111  0.35284  0.44072  1.0000
  Mg  Mg5       1.0  0.90444  0.55521  0.59369  1.0000
  Mg  Mg6       1.0  0.86738  0.34027  0.34824  1.0000
  C  Sn13      1.0  0.60085  0.09720  0.55453  1.0000
  C   C79       1.0  0.55437  0.06359  0.55727  1.0000
  C  Sn14      1.0  0.51607  0.07797  0.50958  1.0000
  C  Sn15      1.0  0.52439  0.12695  0.45794  1.0000
  C   C80       1.0  0.57084  0.16052  0.45518  1.0000
  C  Sn16      1.0  0.60917  0.14618  0.50289  1.0000
  O  Te13      1.0  0.63859  0.08202  0.60273  1.0000
  O  Te14      1.0  0.46993  0.04372  0.51342  1.0000
  O  Te15      1.0  0.48659  0.14211  0.40973  1.0000
  O  Te16      1.0  0.65528  0.18040  0.49903  1.0000
  Mg  Mg7       1.0  0.43020  0.08200  0.43606  1.0000
  Mg  Mg8       1.0  0.69503  0.14216  0.57626  1.0000
  C  Sn17      1.0  0.12202  0.52289  0.93286  1.0000
  C   C81       1.0  0.14841  0.57005  0.95142  1.0000
  C  Sn18      1.0  0.03080  0.64268  0.01123  1.0000
  C  Sn19      1.0  0.98715  0.61580  0.05350  1.0000
  C   C82       1.0  0.96078  0.56867  0.03497  1.0000
  C  Sn20      1.0  0.07837  0.49601  0.97513  1.0000
  O  Te17      1.0  0.13908  0.50280  0.87285  1.0000
  O  Te18      1.0  0.05780  0.68989  0.02866  1.0000
  O  Te19      1.0  0.97010  0.63593  0.11355  1.0000
  O  Te20      1.0  0.05140  0.44883  0.95774  1.0000
  Mg  Mg9       1.0  0.01964  0.70144  0.11556  1.0000
  Mg  Mg10      1.0  0.08954  0.43723  0.87095  1.0000
  C  Sn21      1.0  0.08523  0.58433  0.44736  1.0000
  C   C83       1.0  0.05857  0.53675  0.43544  1.0000
  C  Sn22      1.0  0.08356  0.50819  0.47595  1.0000
  C  Sn23      1.0  0.13631  0.52759  0.52963  1.0000
  C   C84       1.0  0.16294  0.57514  0.54156  1.0000
  C  Sn24      1.0  0.13797  0.60373  0.50104  1.0000
  O  Te21      1.0  0.05947  0.61222  0.40623  1.0000
  O  Te22      1.0  0.05610  0.46072  0.46299  1.0000
  O  Te23      1.0  0.16206  0.49965  0.57076  1.0000
  O  Te24      1.0  0.16541  0.65117  0.51401  1.0000
  Mg  Mg11      1.0  0.10813  0.43701  0.53311  1.0000
  Mg  Mg12      1.0  0.11343  0.67490  0.44403  1.0000
