data_image0
_chemical_formula_structural       ONC9H6ONC9H6ONC9H6C3ONC3H2ONC3H2ONC3H2C3H2ONC9H6ONC3H2ONC3H2C3ONC3H2ONC9H6ONC9H6C3H2SnCSn2CSnTe4Mg2SnCSn2CSnTe4Mg2SnCSn2CSnTe4Mg2SnCSn2CSnTe4Mg2SnCSn2CSnTe4Mg2SnCSn2CSnTe4Mg2
_chemical_formula_sum              "O12 N12 C96 H52 Sn24 Te24 Mg12"
_cell_length_a       34.0548
_cell_length_b       34.7973
_cell_length_c       7.95374
_cell_angle_alpha    60.6994
_cell_angle_beta     122.977
_cell_angle_gamma    120.775

_symmetry_space_group_name_H-M    'P1'
_space_group_IT_number       1

loop_
  _space_group_symop_operation_xyz
  'x, y, z'

loop_
  _atom_site_type_symbol
  _atom_site_label
  _atom_site_symmetry_multiplicity
  _atom_site_fract_x
  _atom_site_fract_y
  _atom_site_fract_z
  _atom_site_occupancy
  O   O1        1.0  0.30067  0.58858  0.96748  1.0000
  N   N1        1.0  0.38364  0.61154  0.94390  1.0000
  C   C1        1.0  0.31240  0.63070  0.95438  1.0000
  C   C2        1.0  0.39288  0.65432  0.93838  1.0000
  C   C3        1.0  0.41459  0.59508  0.95189  1.0000
  C   C4        1.0  0.46263  0.62276  0.95474  1.0000
  C   C5        1.0  0.49127  0.60320  0.96732  1.0000
  C   C6        1.0  0.47373  0.55588  0.97647  1.0000
  C   C7        1.0  0.42504  0.52906  0.96999  1.0000
  C   C8        1.0  0.39604  0.54811  0.95688  1.0000
  C   C9        1.0  0.35952  0.66548  0.94197  1.0000
  H   H1        1.0  0.42757  0.68189  0.92977  1.0000
  H   H2        1.0  0.47740  0.65947  0.94551  1.0000
  H   H3        1.0  0.34895  0.58896  0.95191  1.0000
  H   H4        1.0  0.35840  0.52694  0.94938  1.0000
  H   H5        1.0  0.52837  0.62510  0.96878  1.0000
  H   H6        1.0  0.40964  0.49263  0.97382  1.0000
  O   O2        1.0  0.41529  0.74350  0.91806  1.0000
  N   N2        1.0  0.39770  0.80407  0.94083  1.0000
  C   C10       1.0  0.37403  0.71366  0.93124  1.0000
  C   C11       1.0  0.35372  0.77118  0.94083  1.0000
  C   C12       1.0  0.41635  0.84942  0.95140  1.0000
  C   C13       1.0  0.38912  0.86831  0.95567  1.0000
  C   C14       1.0  0.40965  0.91391  0.96363  1.0000
  C   C15       1.0  0.45795  0.94228  0.96647  1.0000
  C   C16       1.0  0.48491  0.92303  0.96110  1.0000
  C   C17       1.0  0.46442  0.87736  0.95380  1.0000
  C   C18       1.0  0.34026  0.72666  0.93469  1.0000
  H   H7        1.0  0.32759  0.77891  0.94822  1.0000
  H   H8        1.0  0.35204  0.84732  0.95470  1.0000
  H   H9        1.0  0.41864  0.79106  0.93421  1.0000
  H   H10       1.0  0.48532  0.86275  0.94931  1.0000
  H   H11       1.0  0.38873  0.92825  0.96940  1.0000
  H   H12       1.0  0.52185  0.94453  0.96091  1.0000
  O   O3        1.0  0.26196  0.70651  0.93116  1.0000
  N   N3        1.0  0.20122  0.62199  0.96684  1.0000
  C   C19       1.0  0.29165  0.69352  0.93765  1.0000
  C   C20       1.0  0.23407  0.61179  0.96553  1.0000
  C   C21       1.0  0.15492  0.59269  0.97699  1.0000
  C   C22       1.0  0.13406  0.54557  0.98031  1.0000
  C   C23       1.0  0.08710  0.51884  0.98469  1.0000
  C   C24       1.0  0.05939  0.53814  0.98510  1.0000
  C   C25       1.0  0.08074  0.58555  0.98137  1.0000
  C   C26       1.0  0.12771  0.61221  0.97805  1.0000
  C   C27       1.0  0.27878  0.64554  0.95111  1.0000
  H   H13       1.0  0.22627  0.57616  0.97875  1.0000
  H   H14       1.0  0.15407  0.52999  0.97603  1.0000
  H   H15       1.0  0.21472  0.65762  0.95625  1.0000
  H   H16       1.0  0.14415  0.64855  0.97739  1.0000
  H   H17       1.0  0.07079  0.48267  0.98397  1.0000
  H   H18       1.0  0.06011  0.60075  0.98395  1.0000
  C   C28       1.0  0.50532  0.53752  0.98833  1.0000
  C   C29       1.0  0.47879  0.98821  0.97935  1.0000
  C   C30       1.0  0.01197  0.51098  0.99207  1.0000
  O   O4        1.0  0.69085  0.42688  0.03433  1.0000
  N   N4        1.0  0.60863  0.41125  0.04449  1.0000
  C   C31       1.0  0.67582  0.38415  0.04622  1.0000
  C   C32       1.0  0.59669  0.36726  0.05484  1.0000
  C   C33       1.0  0.62788  0.35214  0.05744  1.0000
  H   H19       1.0  0.56091  0.34178  0.05953  1.0000
  H   H20       1.0  0.64384  0.43176  0.03917  1.0000
  O   O5        1.0  0.56563  0.27680  0.05723  1.0000
  N   N5        1.0  0.57966  0.21073  0.04959  1.0000
  C   C34       1.0  0.60883  0.30373  0.05907  1.0000
  C   C35       1.0  0.62396  0.24248  0.04910  1.0000
  C   C36       1.0  0.64023  0.28738  0.05744  1.0000
  H   H21       1.0  0.64900  0.23330  0.04180  1.0000
  H   H22       1.0  0.55931  0.22454  0.05413  1.0000
  O   O6        1.0  0.71650  0.30172  0.05962  1.0000
  N   N6        1.0  0.78144  0.38391  0.02631  1.0000
  C   C37       1.0  0.68958  0.31754  0.05607  1.0000
  C   C38       1.0  0.75130  0.39709  0.03006  1.0000
  C   C39       1.0  0.70607  0.36599  0.04558  1.0000
  H   H23       1.0  0.76215  0.43325  0.02015  1.0000
  H   H24       1.0  0.76567  0.34811  0.03588  1.0000
  C   C40       1.0  0.49350  0.49301  0.99830  1.0000
  C   C41       1.0  0.49675  0.02756  0.99578  1.0000
  C   C42       1.0  0.97100  0.48818  0.00060  1.0000
  H   H25       1.0  0.54155  0.56277  0.98731  1.0000
  H   H26       1.0  0.45740  0.46791  0.00125  1.0000
  O   O7        1.0  0.31066  0.57288  0.46918  1.0000
  N   N7        1.0  0.39279  0.58954  0.45510  1.0000
  C   C43       1.0  0.32533  0.61558  0.45693  1.0000
  C   C44       1.0  0.40454  0.63333  0.44657  1.0000
  C   C45       1.0  0.42215  0.57070  0.46632  1.0000
  C   C46       1.0  0.47050  0.59670  0.47106  1.0000
  C   C47       1.0  0.49749  0.57569  0.48182  1.0000
  C   C48       1.0  0.47819  0.52837  0.48867  1.0000
  C   C49       1.0  0.42979  0.50266  0.48685  1.0000
  C   C50       1.0  0.40226  0.52330  0.47454  1.0000
  C   C51       1.0  0.37319  0.64796  0.44547  1.0000
  H   H27       1.0  0.44027  0.65905  0.44196  1.0000
  H   H28       1.0  0.48703  0.63325  0.46676  1.0000
  H   H29       1.0  0.35750  0.56883  0.45951  1.0000
  H   H30       1.0  0.36476  0.50311  0.47034  1.0000
  H   H31       1.0  0.53473  0.59646  0.48340  1.0000
  H   H32       1.0  0.41334  0.46597  0.49299  1.0000
  O   O8        1.0  0.43484  0.72365  0.44352  1.0000
  N   N8        1.0  0.41992  0.78923  0.45149  1.0000
  C   C52       1.0  0.39183  0.69638  0.44314  1.0000
  C   C53       1.0  0.37586  0.75708  0.45288  1.0000
  C   C54       1.0  0.36010  0.71224  0.44522  1.0000
  H   H33       1.0  0.35059  0.76599  0.45997  1.0000
  H   H34       1.0  0.44063  0.77590  0.44678  1.0000
  O   O9        1.0  0.28360  0.69724  0.44317  1.0000
  N   N9        1.0  0.21876  0.61493  0.47350  1.0000
  C   C55       1.0  0.31081  0.68173  0.44681  1.0000
  C   C56       1.0  0.24930  0.60206  0.47074  1.0000
  C   C57       1.0  0.29467  0.63337  0.45695  1.0000
  H   H35       1.0  0.23858  0.56601  0.47964  1.0000
  H   H36       1.0  0.23432  0.65068  0.46462  1.0000
  C   C58       1.0  0.50863  0.50916  0.49802  1.0000
  C   C59       1.0  0.50106  0.97221  0.50338  1.0000
  C   C60       1.0  0.02885  0.51025  0.49637  1.0000
  O   O10       1.0  0.69998  0.41136  0.53357  1.0000
  N   N10       1.0  0.61736  0.38867  0.55865  1.0000
  C   C61       1.0  0.68805  0.36918  0.54670  1.0000
  C   C62       1.0  0.60780  0.34583  0.56388  1.0000
  C   C63       1.0  0.64096  0.33444  0.56007  1.0000
  H   H37       1.0  0.57296  0.31854  0.57207  1.0000
  H   H38       1.0  0.65196  0.41124  0.54956  1.0000
  O   O11       1.0  0.58520  0.25639  0.58558  1.0000
  N   N11       1.0  0.60237  0.19562  0.56280  1.0000
  C   C64       1.0  0.62636  0.28620  0.57133  1.0000
  C   C65       1.0  0.64634  0.22841  0.56175  1.0000
  C   C66       1.0  0.58321  0.15022  0.55177  1.0000
  C   C67       1.0  0.61004  0.13091  0.54738  1.0000
  C   C68       1.0  0.58890  0.08534  0.53807  1.0000
  C   C69       1.0  0.54042  0.05743  0.53408  1.0000
  C   C70       1.0  0.51390  0.07716  0.53939  1.0000
  C   C71       1.0  0.53492  0.12278  0.54795  1.0000
  C   C72       1.0  0.65988  0.27307  0.56683  1.0000
  H   H39       1.0  0.67239  0.22049  0.55467  1.0000
  H   H40       1.0  0.64721  0.15161  0.54854  1.0000
  H   H41       1.0  0.58166  0.20886  0.56961  1.0000
  H   H42       1.0  0.51423  0.13774  0.55182  1.0000
  H   H43       1.0  0.60940  0.07068  0.53158  1.0000
  H   H44       1.0  0.47681  0.05606  0.53820  1.0000
  O   O12       1.0  0.73780  0.29312  0.56748  1.0000
  N   N12       1.0  0.79888  0.37741  0.53361  1.0000
  C   C73       1.0  0.70834  0.30619  0.56228  1.0000
  C   C74       1.0  0.76621  0.38784  0.53505  1.0000
  C   C75       1.0  0.84520  0.40646  0.52328  1.0000
  C   C76       1.0  0.86619  0.45370  0.51855  1.0000
  C   C77       1.0  0.91307  0.48029  0.51312  1.0000
  C   C78       1.0  0.94058  0.46067  0.51328  1.0000
  C   C79       1.0  0.91913  0.41315  0.51866  1.0000
  C   C80       1.0  0.87224  0.38661  0.52296  1.0000
  C   C81       1.0  0.72144  0.35419  0.54930  1.0000
  H   H45       1.0  0.77409  0.42346  0.52226  1.0000
  H   H46       1.0  0.84626  0.46943  0.52248  1.0000
  H   H47       1.0  0.78505  0.34170  0.54403  1.0000
  H   H48       1.0  0.85576  0.35019  0.52466  1.0000
  H   H49       1.0  0.92939  0.51662  0.51193  1.0000
  H   H50       1.0  0.93962  0.39777  0.51628  1.0000
  C   C82       1.0  0.49682  0.46453  0.50954  1.0000
  C   C83       1.0  0.51910  0.01155  0.51997  1.0000
  C   C84       1.0  0.98793  0.48760  0.50537  1.0000
  H   H51       1.0  0.54475  0.53427  0.49524  1.0000
  H   H52       1.0  0.46087  0.43925  0.51388  1.0000
  C  Sn1       1.0  0.50002  0.86780  0.53350  1.0000
  C   C85       1.0  0.45293  0.83544  0.52513  1.0000
  C  Sn2       1.0  0.41582  0.84996  0.47862  1.0000
  C  Sn3       1.0  0.42596  0.89783  0.43952  1.0000
  C   C86       1.0  0.47302  0.93016  0.44786  1.0000
  C  Sn4       1.0  0.51016  0.91567  0.49440  1.0000
  O  Te1       1.0  0.53656  0.85250  0.58028  1.0000
  O  Te2       1.0  0.36903  0.81696  0.47122  1.0000
  O  Te3       1.0  0.38937  0.91310  0.39271  1.0000
  O  Te4       1.0  0.55692  0.94864  0.50178  1.0000
  Mg  Mg1       1.0  0.33146  0.85491  0.40082  1.0000
  Mg  Mg2       1.0  0.59450  0.91073  0.57205  1.0000
  C  Sn5       1.0  0.57993  0.04122  0.95861  1.0000
  C   C87       1.0  0.60132  0.01660  0.95494  1.0000
  C  Sn6       1.0  0.55952  0.09809  0.01050  1.0000
  C  Sn7       1.0  0.58997  0.13976  0.07113  1.0000
  C   C88       1.0  0.56857  0.16436  0.07482  1.0000
  C  Sn8       1.0  0.51739  0.14819  0.01924  1.0000
  O  Te5       1.0  0.52867  0.02438  0.90246  1.0000
  O  Te6       1.0  0.58006  0.07288  0.00555  1.0000
  O  Te7       1.0  0.64126  0.15659  0.12730  1.0000
  O  Te8       1.0  0.49685  0.17338  0.02420  1.0000
  Mg  Mg3       1.0  0.65180  0.10994  0.09587  1.0000
  Mg  Mg4       1.0  0.51811  0.07104  0.93403  1.0000
  C  Sn9       1.0  0.13442  0.53579  0.43017  1.0000
  C   C89       1.0  0.16323  0.58202  0.43424  1.0000
  C  Sn10      1.0  0.15062  0.60574  0.48769  1.0000
  C  Sn11      1.0  0.10835  0.58276  0.53827  1.0000
  C   C90       1.0  0.07956  0.53655  0.53422  1.0000
  C  Sn12      1.0  0.09214  0.51281  0.48075  1.0000
  O  Te9       1.0  0.14772  0.51275  0.37630  1.0000
  O  Te10      1.0  0.17999  0.65195  0.49060  1.0000
  O  Te11      1.0  0.09506  0.60584  0.59216  1.0000
  O  Te12      1.0  0.06280  0.46662  0.47786  1.0000
  Mg  Mg5       1.0  0.14673  0.66855  0.57402  1.0000
  Mg  Mg6       1.0  0.09605  0.44998  0.39458  1.0000
  C  Sn13      1.0  0.57349  0.50088  0.93808  1.0000
  C   C91       1.0  0.52682  0.48031  0.94701  1.0000
  C  Sn14      1.0  0.41359  0.49706  0.02025  1.0000
  C  Sn15      1.0  0.44057  0.46845  0.08606  1.0000
  C   C92       1.0  0.48723  0.48902  0.07714  1.0000
  C  Sn16      1.0  0.50749  0.53757  0.00389  1.0000
  O  Te13      1.0  0.59301  0.54949  0.86434  1.0000
  O  Te14      1.0  0.36685  0.47730  0.02766  1.0000
  O  Te15      1.0  0.42101  0.41980  0.15983  1.0000
  O  Te16      1.0  0.64719  0.49203  0.99650  1.0000
  Mg  Mg7       1.0  0.35600  0.40938  0.14035  1.0000
  Mg  Mg8       1.0  0.65809  0.55995  0.88395  1.0000
  C  Sn17      1.0  0.94679  0.40568  0.94077  1.0000
  C   C93       1.0  0.91896  0.35869  0.94882  1.0000
  C  Sn18      1.0  0.84869  0.39318  0.00502  1.0000
  C  Sn19      1.0  0.90032  0.40966  0.05434  1.0000
  C   C94       1.0  0.92813  0.45662  0.04632  1.0000
  C  Sn20      1.0  0.99842  0.42216  0.99009  1.0000
  O  Te17      1.0  0.92331  0.43585  0.88420  1.0000
  O  Te18      1.0  0.82009  0.34637  0.01189  1.0000
  O  Te19      1.0  0.92380  0.37944  0.11093  1.0000
  O  Te20      1.0  0.02700  0.46894  0.98324  1.0000
  Mg  Mg9       1.0  0.86903  0.31880  0.09786  1.0000
  Mg  Mg10      1.0  0.97810  0.49653  0.89740  1.0000
  C  Sn21      1.0  0.52470  0.38145  0.49339  1.0000
  C   C95       1.0  0.57252  0.40298  0.49477  1.0000
  C  Sn22      1.0  0.60194  0.44694  0.52782  1.0000
  C  Sn23      1.0  0.58319  0.46985  0.56032  1.0000
  C   C96       1.0  0.53541  0.44831  0.55897  1.0000
  C  Sn24      1.0  0.50596  0.40436  0.52588  1.0000
  O  Te21      1.0  0.49594  0.33749  0.46005  1.0000
  O  Te22      1.0  0.64962  0.46777  0.52845  1.0000
  O  Te23      1.0  0.61200  0.51384  0.59366  1.0000
  O  Te24      1.0  0.45831  0.38352  0.52529  1.0000
  Mg  Mg11      1.0  0.67460  0.52792  0.58061  1.0000
  Mg  Mg12      1.0  0.43331  0.32337  0.47325  1.0000
