data_image0
_chemical_formula_structural       ONC3H2ONC3H2ONC3H2C3ONC3H2ONC3H2ONC3H2C3H2ONC3H2ONC3H2ONC3H2C3ONC3H2ONC3H2ONC3H2C3H2C2Sn2C2HTe2HMgC2Sn2C2HTe2HMgC2Sn2C2HTe2HMgC2Sn2C2HTe2HMgC2Sn2C2HTe2HMgC2Sn2C2HTe2HMgC2Sn2C2HTe2HMgC2Sn2C2HTe2HMgC2Sn2C2HTe2HMgC2Sn2C2HTe2HMgC2Sn2C2HTe2HMgC2Sn2C2HTe2HMg
_chemical_formula_sum              "O12 N12 C96 H52 Sn24 Te24 Mg12"
_cell_length_a       34.0548
_cell_length_b       34.7973
_cell_length_c       7.95374
_cell_angle_alpha    60.6994
_cell_angle_beta     122.977
_cell_angle_gamma    120.775

_symmetry_space_group_name_H-M    'P1'
_space_group_IT_number       1

loop_
  _space_group_symop_operation_xyz
  'x, y, z'

loop_
  _atom_site_type_symbol
  _atom_site_label
  _atom_site_symmetry_multiplicity
  _atom_site_fract_x
  _atom_site_fract_y
  _atom_site_fract_z
  _atom_site_occupancy
  O   O1        1.0  0.30067  0.58858  0.96748  1.0000
  N   N1        1.0  0.38364  0.61154  0.94390  1.0000
  C   C1        1.0  0.31240  0.63070  0.95438  1.0000
  C   C2        1.0  0.39288  0.65432  0.93838  1.0000
  C   C3        1.0  0.35952  0.66548  0.94197  1.0000
  H   H1        1.0  0.42757  0.68189  0.92977  1.0000
  H   H2        1.0  0.34895  0.58896  0.95191  1.0000
  O   O2        1.0  0.41529  0.74350  0.91806  1.0000
  N   N2        1.0  0.39770  0.80407  0.94083  1.0000
  C   C4        1.0  0.37403  0.71366  0.93124  1.0000
  C   C5        1.0  0.35372  0.77118  0.94083  1.0000
  C   C6        1.0  0.34026  0.72666  0.93469  1.0000
  H   H3        1.0  0.32759  0.77891  0.94822  1.0000
  H   H4        1.0  0.41864  0.79106  0.93421  1.0000
  O   O3        1.0  0.26196  0.70651  0.93116  1.0000
  N   N3        1.0  0.20122  0.62199  0.96684  1.0000
  C   C7        1.0  0.29165  0.69352  0.93765  1.0000
  C   C8        1.0  0.23407  0.61179  0.96553  1.0000
  C   C9        1.0  0.27878  0.64554  0.95111  1.0000
  H   H5        1.0  0.22627  0.57616  0.97875  1.0000
  H   H6        1.0  0.21472  0.65762  0.95625  1.0000
  C   C10       1.0  0.50532  0.53752  0.98833  1.0000
  C   C11       1.0  0.47879  0.98821  0.97935  1.0000
  C   C12       1.0  0.01197  0.51098  0.99207  1.0000
  O   O4        1.0  0.69085  0.42688  0.03433  1.0000
  N   N4        1.0  0.60863  0.41125  0.04449  1.0000
  C   C13       1.0  0.67582  0.38415  0.04622  1.0000
  C   C14       1.0  0.59669  0.36726  0.05484  1.0000
  C   C15       1.0  0.62788  0.35214  0.05744  1.0000
  H   H7        1.0  0.56091  0.34178  0.05953  1.0000
  H   H8        1.0  0.64384  0.43176  0.03917  1.0000
  O   O5        1.0  0.56563  0.27680  0.05723  1.0000
  N   N5        1.0  0.57966  0.21073  0.04959  1.0000
  C   C16       1.0  0.60883  0.30373  0.05907  1.0000
  C   C17       1.0  0.62396  0.24248  0.04910  1.0000
  C   C18       1.0  0.64023  0.28738  0.05744  1.0000
  H   H9        1.0  0.64900  0.23330  0.04180  1.0000
  H   H10       1.0  0.55931  0.22454  0.05413  1.0000
  O   O6        1.0  0.71650  0.30172  0.05962  1.0000
  N   N6        1.0  0.78144  0.38391  0.02631  1.0000
  C   C19       1.0  0.68958  0.31754  0.05607  1.0000
  C   C20       1.0  0.75130  0.39709  0.03006  1.0000
  C   C21       1.0  0.70607  0.36599  0.04558  1.0000
  H   H11       1.0  0.76215  0.43325  0.02015  1.0000
  H   H12       1.0  0.76567  0.34811  0.03588  1.0000
  C   C22       1.0  0.49350  0.49301  0.99830  1.0000
  C   C23       1.0  0.49675  0.02756  0.99578  1.0000
  C   C24       1.0  0.97100  0.48818  0.00060  1.0000
  H   H13       1.0  0.54155  0.56277  0.98731  1.0000
  H   H14       1.0  0.45740  0.46791  0.00125  1.0000
  O   O7        1.0  0.31066  0.57288  0.46918  1.0000
  N   N7        1.0  0.39279  0.58954  0.45510  1.0000
  C   C25       1.0  0.32533  0.61558  0.45693  1.0000
  C   C26       1.0  0.40454  0.63333  0.44657  1.0000
  C   C27       1.0  0.37319  0.64796  0.44547  1.0000
  H   H15       1.0  0.44027  0.65905  0.44196  1.0000
  H   H16       1.0  0.35750  0.56883  0.45951  1.0000
  O   O8        1.0  0.43484  0.72365  0.44352  1.0000
  N   N8        1.0  0.41992  0.78923  0.45149  1.0000
  C   C28       1.0  0.39183  0.69638  0.44314  1.0000
  C   C29       1.0  0.37586  0.75708  0.45288  1.0000
  C   C30       1.0  0.36010  0.71224  0.44522  1.0000
  H   H17       1.0  0.35059  0.76599  0.45997  1.0000
  H   H18       1.0  0.44063  0.77590  0.44678  1.0000
  O   O9        1.0  0.28360  0.69724  0.44317  1.0000
  N   N9        1.0  0.21876  0.61493  0.47350  1.0000
  C   C31       1.0  0.31081  0.68173  0.44681  1.0000
  C   C32       1.0  0.24930  0.60206  0.47074  1.0000
  C   C33       1.0  0.29467  0.63337  0.45695  1.0000
  H   H19       1.0  0.23858  0.56601  0.47964  1.0000
  H   H20       1.0  0.23432  0.65068  0.46462  1.0000
  C   C34       1.0  0.50863  0.50916  0.49802  1.0000
  C   C35       1.0  0.50106  0.97221  0.50338  1.0000
  C   C36       1.0  0.02885  0.51025  0.49637  1.0000
  O   O10       1.0  0.69998  0.41136  0.53357  1.0000
  N   N10       1.0  0.61736  0.38867  0.55865  1.0000
  C   C37       1.0  0.68805  0.36918  0.54670  1.0000
  C   C38       1.0  0.60780  0.34583  0.56388  1.0000
  C   C39       1.0  0.64096  0.33444  0.56007  1.0000
  H   H21       1.0  0.57296  0.31854  0.57207  1.0000
  H   H22       1.0  0.65196  0.41124  0.54956  1.0000
  O   O11       1.0  0.58520  0.25639  0.58558  1.0000
  N   N11       1.0  0.60237  0.19562  0.56280  1.0000
  C   C40       1.0  0.62636  0.28620  0.57133  1.0000
  C   C41       1.0  0.64634  0.22841  0.56175  1.0000
  C   C42       1.0  0.65988  0.27307  0.56683  1.0000
  H   H23       1.0  0.67239  0.22049  0.55467  1.0000
  H   H24       1.0  0.58166  0.20886  0.56961  1.0000
  O   O12       1.0  0.73780  0.29312  0.56748  1.0000
  N   N12       1.0  0.79888  0.37741  0.53361  1.0000
  C   C43       1.0  0.70834  0.30619  0.56228  1.0000
  C   C44       1.0  0.76621  0.38784  0.53505  1.0000
  C   C45       1.0  0.72144  0.35419  0.54930  1.0000
  H   H25       1.0  0.77409  0.42346  0.52226  1.0000
  H   H26       1.0  0.78505  0.34170  0.54403  1.0000
  C   C46       1.0  0.49682  0.46453  0.50954  1.0000
  C   C47       1.0  0.51910  0.01155  0.51997  1.0000
  C   C48       1.0  0.98793  0.48760  0.50537  1.0000
  H   H27       1.0  0.54475  0.53427  0.49524  1.0000
  H   H28       1.0  0.46087  0.43925  0.51388  1.0000
  C   C49       1.0  0.41351  0.52720  0.97257  1.0000
  C   C50       1.0  0.46036  0.54888  0.96430  1.0000
  C  Sn1       1.0  0.48638  0.59602  0.95647  1.0000
  C  Sn2       1.0  0.46500  0.62183  0.95701  1.0000
  C   C51       1.0  0.41813  0.59981  0.96546  1.0000
  C   C52       1.0  0.39241  0.55263  0.97318  1.0000
  H   H29       1.0  0.39362  0.49069  0.97866  1.0000
  O  Te1       1.0  0.53314  0.61714  0.94819  1.0000
  O  Te2       1.0  0.49020  0.66898  0.94937  1.0000
  H   H30       1.0  0.35615  0.53585  0.97972  1.0000
  Mg  Mg1       1.0  0.55293  0.68221  0.93959  1.0000
  C   C53       1.0  0.47458  0.88895  0.94932  1.0000
  C   C54       1.0  0.42982  0.85470  0.96348  1.0000
  C  Sn3       1.0  0.39668  0.86570  0.97022  1.0000
  C  Sn4       1.0  0.40866  0.91188  0.96256  1.0000
  C   C55       1.0  0.93069  0.94591  0.94825  1.0000
  C   C56       1.0  0.48642  0.93451  0.94168  1.0000
  H   H31       1.0  0.50003  0.88014  0.94412  1.0000
  O  Te3       1.0  0.35213  0.83105  0.98444  1.0000
  O  Te4       1.0  0.37619  0.92384  0.96895  1.0000
  H   H32       1.0  0.99823  0.96105  0.93058  1.0000
  Mg  Mg2       1.0  0.32001  0.86443  0.98858  1.0000
  C   C57       1.0  0.12433  0.53374  0.98691  1.0000
  C   C58       1.0  0.15005  0.58141  0.96790  1.0000
  C  Sn5       1.0  0.13035  0.60817  0.96757  1.0000
  C  Sn6       1.0  0.08404  0.58671  0.98672  1.0000
  C   C59       1.0  0.96563  0.60430  0.00581  1.0000
  C   C60       1.0  0.98567  0.57785  0.00589  1.0000
  H   H33       1.0  0.13984  0.51327  0.98709  1.0000
  O  Te5       1.0  0.15654  0.65575  0.94836  1.0000
  O  Te6       1.0  0.06351  0.61263  0.98692  1.0000
  H   H34       1.0  0.96576  0.54094  0.02075  1.0000
  Mg  Mg3       1.0  0.11326  0.67634  0.95668  1.0000
  C   C61       1.0  0.50565  0.41513  0.02586  1.0000
  C   C62       1.0  0.51971  0.46078  0.02328  1.0000
  C  Sn7       1.0  0.56542  0.49355  0.01459  1.0000
  C  Sn8       1.0  0.59757  0.48028  0.00831  1.0000
  C   C63       1.0  0.58314  0.43454  0.01080  1.0000
  C   C64       1.0  0.53732  0.40202  0.01959  1.0000
  H   H35       1.0  0.47019  0.38997  0.03254  1.0000
  O  Te7       1.0  0.57890  0.53900  0.01220  1.0000
  O  Te8       1.0  0.73644  0.44705  0.99950  1.0000
  H   H36       1.0  0.52643  0.36669  0.02144  1.0000
  Mg  Mg4       1.0  0.73821  0.50482  0.99949  1.0000
  C   C65       1.0  0.58880  0.13695  0.02868  1.0000
  C   C66       1.0  0.56740  0.16301  0.02270  1.0000
  C  Sn9       1.0  0.51956  0.14239  0.02028  1.0000
  C  Sn10      1.0  0.49276  0.09477  0.02398  1.0000
  C   C67       1.0  0.51451  0.06899  0.03010  1.0000
  C   C68       1.0  0.56240  0.08998  0.03241  1.0000
  H   H37       1.0  0.62586  0.15318  0.03058  1.0000
  O  Te9       1.0  0.49872  0.16894  0.01422  1.0000
  O  Te10      1.0  0.44490  0.07328  0.02175  1.0000
  H   H38       1.0  0.57897  0.06978  0.03718  1.0000
  Mg  Mg5       1.0  0.43241  0.12401  0.01318  1.0000
  C   C69       1.0  0.86358  0.39039  0.00785  1.0000
  C   C70       1.0  0.83426  0.40397  0.02634  1.0000
  C  Sn11      1.0  0.84949  0.44983  0.02424  1.0000
  C  Sn12      1.0  0.89494  0.48262  0.00317  1.0000
  C   C71       1.0  0.01697  0.40340  0.98462  1.0000
  C   C72       1.0  0.00138  0.35741  0.98697  1.0000
  H   H39       1.0  0.85151  0.35482  0.00955  1.0000
  O  Te11      1.0  0.81976  0.46280  0.04297  1.0000
  O  Te12      1.0  0.91103  0.52868  0.00052  1.0000
  H   H40       1.0  0.02408  0.34692  0.97252  1.0000
  Mg  Mg6       1.0  0.85759  0.52959  0.03102  1.0000
  C   C73       1.0  0.41848  0.50125  0.48966  1.0000
  C   C74       1.0  0.46512  0.52140  0.48077  1.0000
  C  Sn13      1.0  0.49263  0.56837  0.47338  1.0000
  C  Sn14      1.0  0.47301  0.59560  0.47498  1.0000
  C   C75       1.0  0.42634  0.57511  0.48405  1.0000
  C   C76       1.0  0.39911  0.52807  0.49133  1.0000
  H   H41       1.0  0.39742  0.46486  0.49541  1.0000
  O  Te13      1.0  0.53916  0.58795  0.46447  1.0000
  O  Te14      1.0  0.49973  0.64262  0.46780  1.0000
  H   H42       1.0  0.36302  0.51248  0.49834  1.0000
  Mg  Mg7       1.0  0.56144  0.65348  0.45685  1.0000
  C   C77       1.0  0.50899  0.89784  0.48151  1.0000
  C   C78       1.0  0.48726  0.92354  0.47597  1.0000
  C  Sn15      1.0  0.43952  0.90248  0.47488  1.0000
  C  Sn16      1.0  0.41314  0.85478  0.47947  1.0000
  C   C79       1.0  0.43522  0.82936  0.48514  1.0000
  C   C80       1.0  0.48301  0.85079  0.48612  1.0000
  H   H43       1.0  0.54597  0.91440  0.48238  1.0000
  O  Te15      1.0  0.41835  0.92867  0.46924  1.0000
  O  Te16      1.0  0.36538  0.83286  0.47857  1.0000
  H   H44       1.0  0.49983  0.83087  0.49055  1.0000
  Mg  Mg8       1.0  0.35234  0.88321  0.47011  1.0000
  C   C81       1.0  0.11357  0.51539  0.48922  1.0000
  C   C82       1.0  0.08347  0.52913  0.50202  1.0000
  C  Sn17      1.0  0.09847  0.57498  0.49942  1.0000
  C  Sn18      1.0  0.14447  0.60760  0.48364  1.0000
  C   C83       1.0  0.17430  0.59351  0.47076  1.0000
  C   C84       1.0  0.15894  0.54754  0.47356  1.0000
  H   H45       1.0  0.10168  0.47983  0.49127  1.0000
  O  Te17      1.0  0.06796  0.58813  0.51243  1.0000
  O  Te18      1.0  0.16036  0.65365  0.48062  1.0000
  H   H46       1.0  0.18224  0.53691  0.46351  1.0000
  Mg  Mg9       1.0  0.10578  0.65483  0.50231  1.0000
  C   C85       1.0  0.58792  0.47413  0.52222  1.0000
  C   C86       1.0  0.53912  0.45397  0.50885  1.0000
  C  Sn19      1.0  0.51383  0.40624  0.52898  1.0000
  C  Sn20      1.0  0.53795  0.37825  0.56317  1.0000
  C   C87       1.0  0.58679  0.39874  0.57646  1.0000
  C   C88       1.0  0.61174  0.44654  0.55603  1.0000
  H   H47       1.0  0.60724  0.51110  0.50653  1.0000
  O  Te19      1.0  0.46508  0.38667  0.51514  1.0000
  O  Te20      1.0  0.51355  0.33046  0.58393  1.0000
  H   H48       1.0  0.64954  0.46213  0.56652  1.0000
  Mg  Mg10      1.0  0.44737  0.31994  0.55345  1.0000
  C   C89       1.0  0.51321  0.08659  0.54686  1.0000
  C   C90       1.0  0.53161  0.06217  0.52505  1.0000
  C  Sn21      1.0  0.57917  0.08253  0.52485  1.0000
  C  Sn22      1.0  0.60876  0.12819  0.54698  1.0000
  C   C91       1.0  0.59002  0.15232  0.56886  1.0000
  C   C92       1.0  0.54238  0.13162  0.56878  1.0000
  H   H49       1.0  0.47636  0.07056  0.54691  1.0000
  O  Te21      1.0  0.59698  0.05765  0.50282  1.0000
  O  Te22      1.0  0.65642  0.14937  0.54739  1.0000
  H   H50       1.0  0.52815  0.15052  0.58580  1.0000
  Mg  Mg11      1.0  0.66424  0.10139  0.51265  1.0000
  C   C93       1.0  0.87701  0.46484  0.52257  1.0000
  C   C94       1.0  0.84810  0.41907  0.51130  1.0000
  C  Sn23      1.0  0.86728  0.39229  0.50869  1.0000
  C  Sn24      1.0  0.91632  0.41178  0.51760  1.0000
  C   C95       1.0  0.94495  0.45759  0.52899  1.0000
  C   C96       1.0  0.92539  0.48409  0.53144  1.0000
  H   H51       1.0  0.86188  0.48534  0.52458  1.0000
  O  Te23      1.0  0.83789  0.34662  0.49730  1.0000
  O  Te24      1.0  0.93641  0.38578  0.51530  1.0000
  H   H52       1.0  0.94779  0.51951  0.54031  1.0000
  Mg  Mg12      1.0  0.88182  0.32511  0.49841  1.0000
