data_image0
_chemical_formula_structural       C7H4NCHC7H4NCHC8H3C7H4NCHC7H4NCHC8H3C7H4NCHC7H4NCHC8H3C7H4NCHC7H4NCHC8H3C2Sn2C2HTe2HMgC2Sn2C2HTe2HMgC2Sn2C2HTe2HMgC2Sn2C2HTe2HMgC2Sn2C2HTe2HMgC2Sn2C2HTe2HMgC2Sn2C2HTe2HMgC2Sn2C2HTe2HMg
_chemical_formula_sum              "C128 H68 N8 Sn16 Te16 Mg8"
_cell_length_a       27.5929
_cell_length_b       29.0578
_cell_length_c       8.12609
_cell_angle_alpha    92.9986
_cell_angle_beta     104.759
_cell_angle_gamma    80.4808

_symmetry_space_group_name_H-M    'P1'
_space_group_IT_number       1

loop_
  _space_group_symop_operation_xyz
  'x, y, z'

loop_
  _atom_site_type_symbol
  _atom_site_label
  _atom_site_symmetry_multiplicity
  _atom_site_fract_x
  _atom_site_fract_y
  _atom_site_fract_z
  _atom_site_occupancy
  C   C1        1.0  0.55752  0.87049  0.11842  1.0000
  C   C2        1.0  0.51403  0.86489  0.17722  1.0000
  C   C3        1.0  0.48395  0.90431  0.22104  1.0000
  C   C4        1.0  0.49363  0.94988  0.20089  1.0000
  C   C5        1.0  0.53673  0.95538  0.13769  1.0000
  C   C6        1.0  0.56821  0.91405  0.09963  1.0000
  C   C7        1.0  0.54626  0.00028  0.11665  1.0000
  H   H1        1.0  0.58249  0.83989  0.08866  1.0000
  H   H2        1.0  0.45194  0.89986  0.27065  1.0000
  H   H3        1.0  0.60107  0.91785  0.05367  1.0000
  H   H4        1.0  0.57823  0.00444  0.06590  1.0000
  N   N1        1.0  0.49950  0.82200  0.19691  1.0000
  C   C8        1.0  0.51514  0.78491  0.11781  1.0000
  H   H5        1.0  0.53973  0.78504  0.03052  1.0000
  C   C9        1.0  0.09578  0.58097  0.43132  1.0000
  C   C10       1.0  0.12627  0.53958  0.38695  1.0000
  C   C11       1.0  0.10820  0.49744  0.37549  1.0000
  C   C12       1.0  0.05966  0.49456  0.39920  1.0000
  C   C13       1.0  0.02919  0.53635  0.44435  1.0000
  C   C14       1.0  0.04948  0.57904  0.46171  1.0000
  C   C15       1.0  0.98121  0.53379  0.46838  1.0000
  H   H6        1.0  0.11049  0.61387  0.44593  1.0000
  H   H7        1.0  0.13176  0.46614  0.34368  1.0000
  H   H8        1.0  0.02746  0.61036  0.50090  1.0000
  H   H9        1.0  0.95843  0.56531  0.50296  1.0000
  N   N2        1.0  0.17472  0.53853  0.36352  1.0000
  C   C16       1.0  0.18789  0.57347  0.30291  1.0000
  H   H10       1.0  0.16098  0.60516  0.25627  1.0000
  C   C17       1.0  0.57766  0.39138  0.22785  1.0000
  C   C18       1.0  0.52618  0.38966  0.20898  1.0000
  C   C19       1.0  0.49255  0.43225  0.21436  1.0000
  C   C20       1.0  0.51132  0.47580  0.22438  1.0000
  C   C21       1.0  0.56385  0.47605  0.23266  1.0000
  C   C22       1.0  0.59774  0.43300  0.24211  1.0000
  C   C23       1.0  0.58033  0.52006  0.23369  1.0000
  C   C24       1.0  0.54817  0.56120  0.23374  1.0000
  H   H11       1.0  0.60343  0.35858  0.23109  1.0000
  H   H12       1.0  0.61951  0.52083  0.23409  1.0000
  H   H13       1.0  0.56347  0.59356  0.24396  1.0000
  C   C25       1.0  0.45085  0.11911  0.24467  1.0000
  C   C26       1.0  0.49307  0.12516  0.17996  1.0000
  C   C27       1.0  0.52459  0.08614  0.14023  1.0000
  C   C28       1.0  0.51497  0.04036  0.15758  1.0000
  C   C29       1.0  0.47204  0.03471  0.22202  1.0000
  C   C30       1.0  0.44110  0.07540  0.26673  1.0000
  C   C31       1.0  0.46256  0.98978  0.24210  1.0000
  H   H14       1.0  0.42839  0.14984  0.28556  1.0000
  H   H15       1.0  0.55678  0.09103  0.09245  1.0000
  H   H16       1.0  0.41039  0.07104  0.32359  1.0000
  H   H17       1.0  0.43065  0.98559  0.29264  1.0000
  N   N3        1.0  0.50555  0.16933  0.16916  1.0000
  C   C32       1.0  0.47102  0.20498  0.11858  1.0000
  H   H18       1.0  0.43090  0.20169  0.06354  1.0000
  C   C33       1.0  0.92252  0.40657  0.38552  1.0000
  C   C34       1.0  0.89112  0.44806  0.42425  1.0000
  C   C35       1.0  0.91162  0.48903  0.46044  1.0000
  C   C36       1.0  0.96129  0.49172  0.44553  1.0000
  C   C37       1.0  0.99193  0.45001  0.40055  1.0000
  C   C38       1.0  0.97110  0.40761  0.37562  1.0000
  C   C39       1.0  0.04034  0.45227  0.38089  1.0000
  H   H19       1.0  0.90762  0.37381  0.36594  1.0000
  H   H20       1.0  0.88801  0.52020  0.49309  1.0000
  H   H21       1.0  0.99471  0.37598  0.34651  1.0000
  H   H22       1.0  0.06332  0.42081  0.34687  1.0000
  N   N4        1.0  0.84009  0.45000  0.42414  1.0000
  C   C40       1.0  0.81384  0.42050  0.33214  1.0000
  H   H23       1.0  0.83005  0.39363  0.25232  1.0000
  C   C41       1.0  0.41137  0.60347  0.22097  1.0000
  C   C42       1.0  0.46037  0.60553  0.20591  1.0000
  C   C43       1.0  0.49545  0.56281  0.22198  1.0000
  C   C44       1.0  0.47750  0.51921  0.22562  1.0000
  C   C45       1.0  0.42588  0.51887  0.23037  1.0000
  C   C46       1.0  0.39346  0.56226  0.23970  1.0000
  C   C47       1.0  0.40873  0.47475  0.21868  1.0000
  C   C48       1.0  0.44047  0.43360  0.21190  1.0000
  H   H24       1.0  0.38530  0.63599  0.21765  1.0000
  H   H25       1.0  0.36907  0.47397  0.21193  1.0000
  H   H26       1.0  0.42586  0.40090  0.20469  1.0000
  C   C49       1.0  0.55353  0.88075  0.63095  1.0000
  C   C50       1.0  0.50792  0.87506  0.67644  1.0000
  C   C51       1.0  0.47642  0.91439  0.71351  1.0000
  C   C52       1.0  0.48721  0.96002  0.70125  1.0000
  C   C53       1.0  0.53294  0.96540  0.65339  1.0000
  C   C54       1.0  0.56553  0.92422  0.62069  1.0000
  C   C55       1.0  0.54380  0.01018  0.64009  1.0000
  H   H27       1.0  0.57913  0.85007  0.60580  1.0000
  H   H28       1.0  0.44273  0.90978  0.75304  1.0000
  H   H29       1.0  0.60027  0.92804  0.58619  1.0000
  H   H30       1.0  0.57782  0.01428  0.60133  1.0000
  N   N5        1.0  0.49361  0.83183  0.69240  1.0000
  C   C56       1.0  0.51167  0.79498  0.61713  1.0000
  H   H31       1.0  0.53701  0.79614  0.53324  1.0000
  C   C57       1.0  0.09711  0.58734  0.92451  1.0000
  C   C58       1.0  0.12829  0.54582  0.88440  1.0000
  C   C59       1.0  0.11062  0.50352  0.87432  1.0000
  C   C60       1.0  0.06205  0.50049  0.89763  1.0000
  C   C61       1.0  0.03170  0.54210  0.94492  1.0000
  C   C62       1.0  0.05110  0.58518  0.95718  1.0000
  C   C63       1.0  0.98442  0.53895  0.97395  1.0000
  H   H32       1.0  0.11125  0.62044  0.93317  1.0000
  H   H33       1.0  0.13476  0.47230  0.84472  1.0000
  H   H34       1.0  0.02828  0.61652  0.99280  1.0000
  H   H35       1.0  0.96179  0.57000  0.01251  1.0000
  N   N6        1.0  0.17697  0.54490  0.86296  1.0000
  C   C64       1.0  0.18929  0.57834  0.79113  1.0000
  H   H36       1.0  0.16147  0.60839  0.73324  1.0000
  C   C65       1.0  0.57988  0.39922  0.72774  1.0000
  C   C66       1.0  0.52835  0.39751  0.70591  1.0000
  C   C67       1.0  0.49510  0.44001  0.71455  1.0000
  C   C68       1.0  0.51386  0.48351  0.72477  1.0000
  C   C69       1.0  0.56665  0.48377  0.73747  1.0000
  C   C70       1.0  0.60056  0.44061  0.74886  1.0000
  C   C71       1.0  0.58283  0.52791  0.73869  1.0000
  C   C72       1.0  0.55009  0.56903  0.73098  1.0000
  H   H37       1.0  0.60532  0.36639  0.72886  1.0000
  H   H38       1.0  0.62230  0.52898  0.74472  1.0000
  H   H39       1.0  0.56523  0.60141  0.73792  1.0000
  C   C73       1.0  0.44422  0.12958  0.73977  1.0000
  C   C74       1.0  0.48893  0.13517  0.68894  1.0000
  C   C75       1.0  0.52187  0.09592  0.65928  1.0000
  C   C76       1.0  0.51122  0.05033  0.67231  1.0000
  C   C77       1.0  0.46580  0.04494  0.72213  1.0000
  C   C78       1.0  0.43358  0.08594  0.75791  1.0000
  C   C79       1.0  0.45508  0.00007  0.73606  1.0000
  H   H40       1.0  0.42026  0.16056  0.77246  1.0000
  H   H41       1.0  0.55588  0.10061  0.62169  1.0000
  H   H42       1.0  0.40083  0.08168  0.80387  1.0000
  H   H43       1.0  0.42117  0.99608  0.77572  1.0000
  N   N7        1.0  0.50227  0.17889  0.67834  1.0000
  C   C80       1.0  0.46843  0.21483  0.62447  1.0000
  H   H44       1.0  0.42816  0.21215  0.56881  1.0000
  C   C81       1.0  0.92573  0.41147  0.88804  1.0000
  C   C82       1.0  0.89492  0.45268  0.93206  1.0000
  C   C83       1.0  0.91562  0.49349  0.96976  1.0000
  C   C84       1.0  0.96476  0.49673  0.95107  1.0000
  C   C85       1.0  0.99476  0.45545  0.90040  1.0000
  C   C86       1.0  0.97384  0.41304  0.87410  1.0000
  C   C87       1.0  0.04271  0.45818  0.87749  1.0000
  H   H45       1.0  0.91100  0.37858  0.86786  1.0000
  H   H46       1.0  0.89214  0.52414  0.00647  1.0000
  H   H47       1.0  0.99695  0.38160  0.84111  1.0000
  H   H48       1.0  0.06509  0.42704  0.83875  1.0000
  N   N8        1.0  0.84418  0.45486  0.93597  1.0000
  C   C88       1.0  0.81696  0.42652  0.84128  1.0000
  H   H49       1.0  0.83224  0.40091  0.75548  1.0000
  C   C89       1.0  0.41240  0.61061  0.70990  1.0000
  C   C90       1.0  0.46171  0.61299  0.69852  1.0000
  C   C91       1.0  0.49721  0.57048  0.71647  1.0000
  C   C92       1.0  0.47967  0.52682  0.72277  1.0000
  C   C93       1.0  0.42808  0.52622  0.72736  1.0000
  C   C94       1.0  0.39493  0.56936  0.73096  1.0000
  C   C95       1.0  0.41166  0.48199  0.72287  1.0000
  C   C96       1.0  0.44355  0.44103  0.71699  1.0000
  H   H50       1.0  0.38582  0.64291  0.70312  1.0000
  H   H51       1.0  0.37246  0.48067  0.72060  1.0000
  H   H52       1.0  0.42949  0.40825  0.71526  1.0000
  C   C97       1.0  0.69199  0.38962  0.17127  1.0000
  C   C98       1.0  0.65973  0.41904  0.25290  1.0000
  C  Sn1       1.0  0.67864  0.45265  0.37017  1.0000
  C  Sn2       1.0  0.73083  0.45681  0.40609  1.0000
  C   C99       1.0  0.76278  0.42723  0.32366  1.0000
  C   C100      1.0  0.74346  0.39371  0.20658  1.0000
  H   H53       1.0  0.67704  0.36370  0.08061  1.0000
  O  Te1       1.0  0.64589  0.48175  0.45063  1.0000
  O  Te2       1.0  0.75072  0.49011  0.52270  1.0000
  H   H54       1.0  0.76844  0.37096  0.14332  1.0000
  Mg  Mg1       1.0  0.69093  0.52170  0.59970  1.0000
  C   C101      1.0  0.52719  0.68612  0.07062  1.0000
  C   C102      1.0  0.50627  0.73060  0.11623  1.0000
  C  Sn3       1.0  0.46704  0.73602  0.19897  1.0000
  C  Sn4       1.0  0.44850  0.69611  0.23662  1.0000
  C   C103      1.0  0.46971  0.65177  0.19057  1.0000
  C   C104      1.0  0.50894  0.64674  0.10777  1.0000
  H   H55       1.0  0.55756  0.68223  0.00664  1.0000
  O  Te3       1.0  0.44655  0.78071  0.24358  1.0000
  O  Te4       1.0  0.40933  0.70053  0.31927  1.0000
  H   H56       1.0  0.52515  0.61230  0.07257  1.0000
  Mg  Mg2       1.0  0.39373  0.76878  0.35437  1.0000
  C   C105      1.0  0.28945  0.60804  0.17072  1.0000
  C   C106      1.0  0.33263  0.57683  0.24730  1.0000
  C  Sn5       1.0  0.32882  0.54094  0.34899  1.0000
  C  Sn6       1.0  0.28084  0.53629  0.37421  1.0000
  C   C107      1.0  0.23786  0.56767  0.29694  1.0000
  C   C108      1.0  0.24211  0.60347  0.19547  1.0000
  H   H57       1.0  0.29273  0.63572  0.09214  1.0000
  O  Te5       1.0  0.37234  0.51007  0.42460  1.0000
  O  Te6       1.0  0.27595  0.50073  0.47517  1.0000
  H   H58       1.0  0.20867  0.62761  0.13611  1.0000
  Mg  Mg3       1.0  0.34629  0.46732  0.55117  1.0000
  C   C109      1.0  0.54219  0.29315  0.30033  1.0000
  C   C110      1.0  0.51956  0.33379  0.20845  1.0000
  C  Sn7       1.0  0.47594  0.33366  0.07566  1.0000
  C  Sn8       1.0  0.45468  0.29201  0.03441  1.0000
  C   C111      1.0  0.47759  0.25155  0.12717  1.0000
  C   C112      1.0  0.52123  0.25206  0.25977  1.0000
  H   H59       1.0  0.57594  0.29355  0.40298  1.0000
  O  Te7       1.0  0.52834  0.37749  0.98512  1.0000
  O  Te8       1.0  0.48561  0.29384  0.90234  1.0000
  H   H60       1.0  0.53872  0.22060  0.33095  1.0000
  Mg  Mg4       1.0  0.46931  0.35849  0.81605  1.0000
  C   C113      1.0  0.72451  0.47051  0.92349  1.0000
  C   C114      1.0  0.75761  0.43711  0.85858  1.0000
  C  Sn9       1.0  0.73878  0.40252  0.74600  1.0000
  C  Sn10      1.0  0.68580  0.40143  0.69771  1.0000
  C   C115      1.0  0.65300  0.43502  0.76327  1.0000
  C   C116      1.0  0.67226  0.46948  0.87588  1.0000
  H   H61       1.0  0.66489  0.49426  0.01054  1.0000
  O  Te9       1.0  0.77238  0.36940  0.68240  1.0000
  O  Te10      1.0  0.66596  0.36725  0.58535  1.0000
  H   H62       1.0  0.64662  0.49535  0.92603  1.0000
  Mg  Mg5       1.0  0.72705  0.32973  0.53301  1.0000
  C   C117      1.0  0.51924  0.67268  0.57234  1.0000
  C   C118      1.0  0.48418  0.66014  0.65230  1.0000
  C  Sn11      1.0  0.45362  0.69437  0.72400  1.0000
  C  Sn12      1.0  0.45834  0.74201  0.71525  1.0000
  C   C119      1.0  0.49351  0.75420  0.63487  1.0000
  C   C120      1.0  0.52390  0.71967  0.56359  1.0000
  H   H63       1.0  0.54274  0.64596  0.51710  1.0000
  O  Te11      1.0  0.41879  0.68123  0.80346  1.0000
  O  Te12      1.0  0.42826  0.77694  0.78580  1.0000
  H   H64       1.0  0.55103  0.72939  0.50160  1.0000
  Mg  Mg6       1.0  0.38632  0.74158  0.88069  1.0000
  C   C121      1.0  0.32076  0.53670  0.87391  1.0000
  C   C122      1.0  0.34021  0.56340  0.77534  1.0000
  C  Sn13      1.0  0.30854  0.59984  0.67680  1.0000
  C  Sn14      1.0  0.25647  0.60966  0.67726  1.0000
  C   C123      1.0  0.23739  0.58277  0.77639  1.0000
  C   C124      1.0  0.26941  0.54637  0.87448  1.0000
  H   H65       1.0  0.34553  0.50856  0.94988  1.0000
  O  Te13      1.0  0.32859  0.62615  0.57901  1.0000
  O  Te14      1.0  0.22398  0.64589  0.58001  1.0000
  H   H66       1.0  0.25435  0.52573  0.95087  1.0000
  Mg  Mg7       1.0  0.26914  0.67188  0.46763  1.0000
  C   C125      1.0  0.44874  0.31196  0.53321  1.0000
  C   C126      1.0  0.47440  0.26995  0.61039  1.0000
  C  Sn15      1.0  0.52028  0.26894  0.73374  1.0000
  C  Sn16      1.0  0.54073  0.31082  0.78046  1.0000
  C   C127      1.0  0.51474  0.35267  0.70258  1.0000
  C   C128      1.0  0.46887  0.35329  0.57926  1.0000
  H   H67       1.0  0.41323  0.31245  0.43786  1.0000
  O  Te15      1.0  0.54543  0.22666  0.80954  1.0000
  O  Te16      1.0  0.58650  0.31080  0.90341  1.0000
  H   H68       1.0  0.44900  0.38583  0.51960  1.0000
  Mg  Mg8       1.0  0.60665  0.24448  0.97041  1.0000
