data_image0
_chemical_formula_structural       C7H4NCHC7H4NCHC8H3C7H4NCHC7H4NCHC8H3C7H4NCHC7H4NCHC8H3C7H4NCHC7H4NCHC8H3SnCSn2CSnTe4Mg2SnCSn2CSnTe4Mg2SnCSn2CSnTe4Mg2SnCSn2CSnTe4Mg2SnCSn2CSnTe4Mg2SnCSn2CSnTe4Mg2SnCSn2CSnTe4Mg2SnCSn2CSnTe4Mg2
_chemical_formula_sum              "C112 H52 N8 Sn32 Te32 Mg16"
_cell_length_a       27.5929
_cell_length_b       29.0578
_cell_length_c       8.12609
_cell_angle_alpha    92.9986
_cell_angle_beta     104.759
_cell_angle_gamma    80.4808

_symmetry_space_group_name_H-M    'P1'
_space_group_IT_number       1

loop_
  _space_group_symop_operation_xyz
  'x, y, z'

loop_
  _atom_site_type_symbol
  _atom_site_label
  _atom_site_symmetry_multiplicity
  _atom_site_fract_x
  _atom_site_fract_y
  _atom_site_fract_z
  _atom_site_occupancy
  C   C1        1.0  0.55752  0.87049  0.11842  1.0000
  C   C2        1.0  0.51403  0.86489  0.17722  1.0000
  C   C3        1.0  0.48395  0.90431  0.22104  1.0000
  C   C4        1.0  0.49363  0.94988  0.20089  1.0000
  C   C5        1.0  0.53673  0.95538  0.13769  1.0000
  C   C6        1.0  0.56821  0.91405  0.09963  1.0000
  C   C7        1.0  0.54626  0.00028  0.11665  1.0000
  H   H1        1.0  0.58249  0.83989  0.08866  1.0000
  H   H2        1.0  0.45194  0.89986  0.27065  1.0000
  H   H3        1.0  0.60107  0.91785  0.05367  1.0000
  H   H4        1.0  0.57823  0.00444  0.06590  1.0000
  N   N1        1.0  0.49950  0.82200  0.19691  1.0000
  C   C8        1.0  0.51514  0.78491  0.11781  1.0000
  H   H5        1.0  0.53973  0.78504  0.03052  1.0000
  C   C9        1.0  0.09578  0.58097  0.43132  1.0000
  C   C10       1.0  0.12627  0.53958  0.38695  1.0000
  C   C11       1.0  0.10820  0.49744  0.37549  1.0000
  C   C12       1.0  0.05966  0.49456  0.39920  1.0000
  C   C13       1.0  0.02919  0.53635  0.44435  1.0000
  C   C14       1.0  0.04948  0.57904  0.46171  1.0000
  C   C15       1.0  0.98121  0.53379  0.46838  1.0000
  H   H6        1.0  0.11049  0.61387  0.44593  1.0000
  H   H7        1.0  0.13176  0.46614  0.34368  1.0000
  H   H8        1.0  0.02746  0.61036  0.50090  1.0000
  H   H9        1.0  0.95843  0.56531  0.50296  1.0000
  N   N2        1.0  0.17472  0.53853  0.36352  1.0000
  C   C16       1.0  0.18789  0.57347  0.30291  1.0000
  H   H10       1.0  0.16098  0.60516  0.25627  1.0000
  C   C17       1.0  0.57766  0.39138  0.22785  1.0000
  C   C18       1.0  0.52618  0.38966  0.20898  1.0000
  C   C19       1.0  0.49255  0.43225  0.21436  1.0000
  C   C20       1.0  0.51132  0.47580  0.22438  1.0000
  C   C21       1.0  0.56385  0.47605  0.23266  1.0000
  C   C22       1.0  0.59774  0.43300  0.24211  1.0000
  C   C23       1.0  0.58033  0.52006  0.23369  1.0000
  C   C24       1.0  0.54817  0.56120  0.23374  1.0000
  H   H11       1.0  0.60343  0.35858  0.23109  1.0000
  H   H12       1.0  0.61951  0.52083  0.23409  1.0000
  H   H13       1.0  0.56347  0.59356  0.24396  1.0000
  C   C25       1.0  0.45085  0.11911  0.24467  1.0000
  C   C26       1.0  0.49307  0.12516  0.17996  1.0000
  C   C27       1.0  0.52459  0.08614  0.14023  1.0000
  C   C28       1.0  0.51497  0.04036  0.15758  1.0000
  C   C29       1.0  0.47204  0.03471  0.22202  1.0000
  C   C30       1.0  0.44110  0.07540  0.26673  1.0000
  C   C31       1.0  0.46256  0.98978  0.24210  1.0000
  H   H14       1.0  0.42839  0.14984  0.28556  1.0000
  H   H15       1.0  0.55678  0.09103  0.09245  1.0000
  H   H16       1.0  0.41039  0.07104  0.32359  1.0000
  H   H17       1.0  0.43065  0.98559  0.29264  1.0000
  N   N3        1.0  0.50555  0.16933  0.16916  1.0000
  C   C32       1.0  0.47102  0.20498  0.11858  1.0000
  H   H18       1.0  0.43090  0.20169  0.06354  1.0000
  C   C33       1.0  0.92252  0.40657  0.38552  1.0000
  C   C34       1.0  0.89112  0.44806  0.42425  1.0000
  C   C35       1.0  0.91162  0.48903  0.46044  1.0000
  C   C36       1.0  0.96129  0.49172  0.44553  1.0000
  C   C37       1.0  0.99193  0.45001  0.40055  1.0000
  C   C38       1.0  0.97110  0.40761  0.37562  1.0000
  C   C39       1.0  0.04034  0.45227  0.38089  1.0000
  H   H19       1.0  0.90762  0.37381  0.36594  1.0000
  H   H20       1.0  0.88801  0.52020  0.49309  1.0000
  H   H21       1.0  0.99471  0.37598  0.34651  1.0000
  H   H22       1.0  0.06332  0.42081  0.34687  1.0000
  N   N4        1.0  0.84009  0.45000  0.42414  1.0000
  C   C40       1.0  0.81384  0.42050  0.33214  1.0000
  H   H23       1.0  0.83005  0.39363  0.25232  1.0000
  C   C41       1.0  0.41137  0.60347  0.22097  1.0000
  C   C42       1.0  0.46037  0.60553  0.20591  1.0000
  C   C43       1.0  0.49545  0.56281  0.22198  1.0000
  C   C44       1.0  0.47750  0.51921  0.22562  1.0000
  C   C45       1.0  0.42588  0.51887  0.23037  1.0000
  C   C46       1.0  0.39346  0.56226  0.23970  1.0000
  C   C47       1.0  0.40873  0.47475  0.21868  1.0000
  C   C48       1.0  0.44047  0.43360  0.21190  1.0000
  H   H24       1.0  0.38530  0.63599  0.21765  1.0000
  H   H25       1.0  0.36907  0.47397  0.21193  1.0000
  H   H26       1.0  0.42586  0.40090  0.20469  1.0000
  C   C49       1.0  0.55353  0.88075  0.63095  1.0000
  C   C50       1.0  0.50792  0.87506  0.67644  1.0000
  C   C51       1.0  0.47642  0.91439  0.71351  1.0000
  C   C52       1.0  0.48721  0.96002  0.70125  1.0000
  C   C53       1.0  0.53294  0.96540  0.65339  1.0000
  C   C54       1.0  0.56553  0.92422  0.62069  1.0000
  C   C55       1.0  0.54380  0.01018  0.64009  1.0000
  H   H27       1.0  0.57913  0.85007  0.60580  1.0000
  H   H28       1.0  0.44273  0.90978  0.75304  1.0000
  H   H29       1.0  0.60027  0.92804  0.58619  1.0000
  H   H30       1.0  0.57782  0.01428  0.60133  1.0000
  N   N5        1.0  0.49361  0.83183  0.69240  1.0000
  C   C56       1.0  0.51167  0.79498  0.61713  1.0000
  H   H31       1.0  0.53701  0.79614  0.53324  1.0000
  C   C57       1.0  0.09711  0.58734  0.92451  1.0000
  C   C58       1.0  0.12829  0.54582  0.88440  1.0000
  C   C59       1.0  0.11062  0.50352  0.87432  1.0000
  C   C60       1.0  0.06205  0.50049  0.89763  1.0000
  C   C61       1.0  0.03170  0.54210  0.94492  1.0000
  C   C62       1.0  0.05110  0.58518  0.95718  1.0000
  C   C63       1.0  0.98442  0.53895  0.97395  1.0000
  H   H32       1.0  0.11125  0.62044  0.93317  1.0000
  H   H33       1.0  0.13476  0.47230  0.84472  1.0000
  H   H34       1.0  0.02828  0.61652  0.99280  1.0000
  H   H35       1.0  0.96179  0.57000  0.01251  1.0000
  N   N6        1.0  0.17697  0.54490  0.86296  1.0000
  C   C64       1.0  0.18929  0.57834  0.79113  1.0000
  H   H36       1.0  0.16147  0.60839  0.73324  1.0000
  C   C65       1.0  0.57988  0.39922  0.72774  1.0000
  C   C66       1.0  0.52835  0.39751  0.70591  1.0000
  C   C67       1.0  0.49510  0.44001  0.71455  1.0000
  C   C68       1.0  0.51386  0.48351  0.72477  1.0000
  C   C69       1.0  0.56665  0.48377  0.73747  1.0000
  C   C70       1.0  0.60056  0.44061  0.74886  1.0000
  C   C71       1.0  0.58283  0.52791  0.73869  1.0000
  C   C72       1.0  0.55009  0.56903  0.73098  1.0000
  H   H37       1.0  0.60532  0.36639  0.72886  1.0000
  H   H38       1.0  0.62230  0.52898  0.74472  1.0000
  H   H39       1.0  0.56523  0.60141  0.73792  1.0000
  C   C73       1.0  0.44422  0.12958  0.73977  1.0000
  C   C74       1.0  0.48893  0.13517  0.68894  1.0000
  C   C75       1.0  0.52187  0.09592  0.65928  1.0000
  C   C76       1.0  0.51122  0.05033  0.67231  1.0000
  C   C77       1.0  0.46580  0.04494  0.72213  1.0000
  C   C78       1.0  0.43358  0.08594  0.75791  1.0000
  C   C79       1.0  0.45508  0.00007  0.73606  1.0000
  H   H40       1.0  0.42026  0.16056  0.77246  1.0000
  H   H41       1.0  0.55588  0.10061  0.62169  1.0000
  H   H42       1.0  0.40083  0.08168  0.80387  1.0000
  H   H43       1.0  0.42117  0.99608  0.77572  1.0000
  N   N7        1.0  0.50227  0.17889  0.67834  1.0000
  C   C80       1.0  0.46843  0.21483  0.62447  1.0000
  H   H44       1.0  0.42816  0.21215  0.56881  1.0000
  C   C81       1.0  0.92573  0.41147  0.88804  1.0000
  C   C82       1.0  0.89492  0.45268  0.93206  1.0000
  C   C83       1.0  0.91562  0.49349  0.96976  1.0000
  C   C84       1.0  0.96476  0.49673  0.95107  1.0000
  C   C85       1.0  0.99476  0.45545  0.90040  1.0000
  C   C86       1.0  0.97384  0.41304  0.87410  1.0000
  C   C87       1.0  0.04271  0.45818  0.87749  1.0000
  H   H45       1.0  0.91100  0.37858  0.86786  1.0000
  H   H46       1.0  0.89214  0.52414  0.00647  1.0000
  H   H47       1.0  0.99695  0.38160  0.84111  1.0000
  H   H48       1.0  0.06509  0.42704  0.83875  1.0000
  N   N8        1.0  0.84418  0.45486  0.93597  1.0000
  C   C88       1.0  0.81696  0.42652  0.84128  1.0000
  H   H49       1.0  0.83224  0.40091  0.75548  1.0000
  C   C89       1.0  0.41240  0.61061  0.70990  1.0000
  C   C90       1.0  0.46171  0.61299  0.69852  1.0000
  C   C91       1.0  0.49721  0.57048  0.71647  1.0000
  C   C92       1.0  0.47967  0.52682  0.72277  1.0000
  C   C93       1.0  0.42808  0.52622  0.72736  1.0000
  C   C94       1.0  0.39493  0.56936  0.73096  1.0000
  C   C95       1.0  0.41166  0.48199  0.72287  1.0000
  C   C96       1.0  0.44355  0.44103  0.71699  1.0000
  H   H50       1.0  0.38582  0.64291  0.70312  1.0000
  H   H51       1.0  0.37246  0.48067  0.72060  1.0000
  H   H52       1.0  0.42949  0.40825  0.71526  1.0000
  C  Sn1       1.0  0.68952  0.47142  0.35398  1.0000
  C   C97       1.0  0.65705  0.44274  0.25511  1.0000
  C  Sn2       1.0  0.67676  0.39996  0.19248  1.0000
  C  Sn3       1.0  0.73004  0.38553  0.22951  1.0000
  C   C98       1.0  0.76248  0.41420  0.32834  1.0000
  C  Sn4       1.0  0.74280  0.45699  0.39101  1.0000
  O  Te1       1.0  0.66897  0.51404  0.41527  1.0000
  O  Te2       1.0  0.64354  0.37189  0.09387  1.0000
  O  Te3       1.0  0.75057  0.34287  0.16811  1.0000
  O  Te4       1.0  0.77599  0.48505  0.48958  1.0000
  Mg  Mg1       1.0  0.68981  0.31687  0.03946  1.0000
  Mg  Mg2       1.0  0.72976  0.54006  0.54412  1.0000
  C  Sn5       1.0  0.43646  0.70509  0.18328  1.0000
  C   C99       1.0  0.45898  0.66094  0.14045  1.0000
  C  Sn6       1.0  0.50600  0.65503  0.10064  1.0000
  C  Sn7       1.0  0.53104  0.69406  0.10381  1.0000
  C   C100      1.0  0.50852  0.73818  0.14666  1.0000
  C  Sn8       1.0  0.46150  0.74412  0.18646  1.0000
  O  Te5       1.0  0.38944  0.71018  0.22264  1.0000
  O  Te6       1.0  0.52775  0.61055  0.05815  1.0000
  O  Te7       1.0  0.57809  0.68894  0.06441  1.0000
  O  Te8       1.0  0.43976  0.78856  0.22896  1.0000
  Mg  Mg3       1.0  0.59234  0.62136  0.01447  1.0000
  Mg  Mg4       1.0  0.37518  0.77779  0.27274  1.0000
  C  Sn9       1.0  0.29224  0.54111  0.41623  1.0000
  C   C101      1.0  0.24947  0.57206  0.33474  1.0000
  C  Sn10      1.0  0.25125  0.59921  0.20016  1.0000
  C  Sn11      1.0  0.29671  0.59533  0.14581  1.0000
  C   C102      1.0  0.33944  0.56438  0.22725  1.0000
  C  Sn12      1.0  0.33770  0.53722  0.36188  1.0000
  O  Te9       1.0  0.28960  0.51431  0.55049  1.0000
  O  Te10      1.0  0.20802  0.62993  0.12071  1.0000
  O  Te11      1.0  0.29933  0.62216  0.01144  1.0000
  O  Te12      1.0  0.38090  0.50652  0.44129  1.0000
  Mg  Mg5       1.0  0.30494  0.66190  0.94358  1.0000
  Mg  Mg6       1.0  0.35853  0.47744  0.61836  1.0000
  C  Sn13      1.0  0.52403  0.27187  0.30823  1.0000
  C   C103      1.0  0.48469  0.25678  0.18314  1.0000
  C  Sn14      1.0  0.45922  0.28479  0.04314  1.0000
  C  Sn15      1.0  0.47339  0.32881  0.02779  1.0000
  C   C104      1.0  0.51272  0.34389  0.15280  1.0000
  C  Sn16      1.0  0.53820  0.31589  0.29287  1.0000
  O  Te13      1.0  0.54897  0.24329  0.44710  1.0000
  O  Te14      1.0  0.49451  0.27188  0.91975  1.0000
  O  Te15      1.0  0.52292  0.36033  0.88877  1.0000
  O  Te16      1.0  0.57741  0.33171  0.41620  1.0000
  Mg  Mg7       1.0  0.47198  0.32342  0.75397  1.0000
  Mg  Mg8       1.0  0.59998  0.28020  0.58197  1.0000
  C  Sn17      1.0  0.72812  0.45813  0.95845  1.0000
  C   C105      1.0  0.75961  0.42729  0.87822  1.0000
  C  Sn18      1.0  0.73879  0.40184  0.73438  1.0000
  C  Sn19      1.0  0.68537  0.40734  0.66929  1.0000
  C   C106      1.0  0.65390  0.43817  0.74949  1.0000
  C  Sn20      1.0  0.67470  0.46363  0.89337  1.0000
  O  Te17      1.0  0.67525  0.48029  0.10209  1.0000
  O  Te18      1.0  0.77104  0.37122  0.65639  1.0000
  O  Te19      1.0  0.66374  0.38222  0.52555  1.0000
  O  Te20      1.0  0.64247  0.49424  0.97132  1.0000
  Mg  Mg9       1.0  0.72345  0.34482  0.46394  1.0000
  Mg  Mg10      1.0  0.61550  0.51775  0.16371  1.0000
  C  Sn21      1.0  0.52730  0.67137  0.62821  1.0000
  C   C107      1.0  0.48843  0.66034  0.69331  1.0000
  C  Sn22      1.0  0.45003  0.69534  0.72135  1.0000
  C  Sn23      1.0  0.45047  0.74234  0.68344  1.0000
  C   C108      1.0  0.48931  0.75335  0.61836  1.0000
  C  Sn24      1.0  0.52773  0.71837  0.59030  1.0000
  O  Te21      1.0  0.56530  0.63581  0.60118  1.0000
  O  Te22      1.0  0.41159  0.68347  0.78659  1.0000
  O  Te23      1.0  0.41242  0.77790  0.71054  1.0000
  O  Te24      1.0  0.56616  0.73022  0.52508  1.0000
  Mg  Mg11      1.0  0.36820  0.74426  0.80134  1.0000
  Mg  Mg12      1.0  0.60954  0.66946  0.51020  1.0000
  C  Sn25      1.0  0.26047  0.60296  0.63289  1.0000
  C   C109      1.0  0.24218  0.57622  0.73473  1.0000
  C  Sn26      1.0  0.27580  0.54884  0.86453  1.0000
  C  Sn27      1.0  0.32881  0.54819  0.89323  1.0000
  C   C110      1.0  0.34707  0.57492  0.79145  1.0000
  C  Sn28      1.0  0.31348  0.60231  0.66158  1.0000
  O  Te25      1.0  0.22617  0.63008  0.50385  1.0000
  O  Te26      1.0  0.25661  0.52239  0.96465  1.0000
  O  Te27      1.0  0.28860  0.51812  0.02239  1.0000
  O  Te28      1.0  0.33264  0.62875  0.56153  1.0000
  Mg  Mg13      1.0  0.24402  0.48812  0.12484  1.0000
  Mg  Mg14      1.0  0.27076  0.66013  0.40136  1.0000
  C  Sn29      1.0  0.46004  0.30620  0.50268  1.0000
  C   C111      1.0  0.48382  0.26575  0.59421  1.0000
  C  Sn30      1.0  0.52123  0.26820  0.74556  1.0000
  C  Sn31      1.0  0.53514  0.31198  0.80677  1.0000
  C   C112      1.0  0.51135  0.35240  0.71528  1.0000
  C  Sn32      1.0  0.47394  0.34999  0.56389  1.0000
  O  Te29      1.0  0.42274  0.30294  0.35169  1.0000
  O  Te30      1.0  0.54449  0.22728  0.83481  1.0000
  O  Te31      1.0  0.57247  0.31522  0.95788  1.0000
  O  Te32      1.0  0.45069  0.39088  0.47468  1.0000
  Mg  Mg15      1.0  0.51864  0.24677  0.03403  1.0000
  Mg  Mg16      1.0  0.40200  0.36851  0.27551  1.0000
