data_image0
_chemical_formula_structural       NC7H6BOC8NCH6BOC2NC7H6BOC8NC7H10BOC2NC7H6BOC2NCH2BOC4Sn2C2HTe2HMgC2Sn2C2HTe2HMgC2Sn2C2HTe2HMgC2Sn2C2HTe2HMgC2Sn2C2HTe2HMgC2Sn2C2HTe2HMg
_chemical_formula_sum              "N6 C78 H48 B6 O6 Sn12 Te12 Mg6"
_cell_length_a       26.1805
_cell_length_b       26.1995
_cell_length_c       8.43644
_cell_angle_alpha    118.507
_cell_angle_beta     60.1855
_cell_angle_gamma    119.916

_symmetry_space_group_name_H-M    'P1'
_space_group_IT_number       1

loop_
  _space_group_symop_operation_xyz
  'x, y, z'

loop_
  _atom_site_type_symbol
  _atom_site_label
  _atom_site_symmetry_multiplicity
  _atom_site_fract_x
  _atom_site_fract_y
  _atom_site_fract_z
  _atom_site_occupancy
  N   N1        1.0  0.49055  0.47879  0.27572  1.0000
  C   C1        1.0  0.40452  0.61435  0.26687  1.0000
  C   C2        1.0  0.46788  0.64729  0.25333  1.0000
  C   C3        1.0  0.37730  0.55358  0.27789  1.0000
  C   C4        1.0  0.50328  0.61993  0.24599  1.0000
  C   C5        1.0  0.41208  0.52619  0.27322  1.0000
  C   C6        1.0  0.47576  0.55911  0.25602  1.0000
  C   C7        1.0  0.51434  0.53147  0.24539  1.0000
  H   H1        1.0  0.48907  0.69428  0.24570  1.0000
  H   H2        1.0  0.32822  0.52788  0.28937  1.0000
  H   H3        1.0  0.55248  0.64546  0.23319  1.0000
  H   H4        1.0  0.39167  0.47925  0.28056  1.0000
  H   H5        1.0  0.56499  0.55774  0.20676  1.0000
  H   H6        1.0  0.72224  0.43951  0.21304  1.0000
  B   B1        1.0  0.36707  0.64307  0.25799  1.0000
  O   O1        1.0  0.30543  0.60924  0.26333  1.0000
  C   C8        1.0  0.63470  0.36316  0.24064  1.0000
  C   C9        1.0  0.69746  0.39411  0.23310  1.0000
  C   C10       1.0  0.60378  0.12045  0.29702  1.0000
  C   C11       1.0  0.63136  0.18190  0.30064  1.0000
  C   C12       1.0  0.60622  0.20797  0.25627  1.0000
  C   C13       1.0  0.55134  0.16893  0.20789  1.0000
  C   C14       1.0  0.52328  0.10760  0.20525  1.0000
  C   C15       1.0  0.54876  0.08209  0.25089  1.0000
  N   N2        1.0  0.52504  0.02062  0.24829  1.0000
  C   C16       1.0  0.46810  0.98600  0.25219  1.0000
  H   H7        1.0  0.62332  0.10129  0.33456  1.0000
  H   H8        1.0  0.67271  0.21043  0.34269  1.0000
  H   H9        1.0  0.53194  0.18582  0.16225  1.0000
  H   H10       1.0  0.48302  0.07832  0.15750  1.0000
  H   H11       1.0  0.43517  0.00320  0.26483  1.0000
  H   H12       1.0  0.55652  0.27852  0.26542  1.0000
  B   B2        1.0  0.36176  0.72789  0.23147  1.0000
  O   O2        1.0  0.39468  0.70287  0.24564  1.0000
  C   C17       1.0  0.63731  0.27277  0.25341  1.0000
  C   C18       1.0  0.60557  0.30272  0.25250  1.0000
  N   N3        1.0  0.98244  0.50760  0.24081  1.0000
  C   C19       1.0  0.20338  0.59565  0.25588  1.0000
  C   C20       1.0  0.17279  0.53745  0.28626  1.0000
  C   C21       1.0  0.16944  0.61894  0.23525  1.0000
  C   C22       1.0  0.11055  0.50387  0.29621  1.0000
  C   C23       1.0  0.10772  0.58536  0.24200  1.0000
  C   C24       1.0  0.07743  0.52728  0.27308  1.0000
  C   C25       1.0  0.01249  0.49118  0.28165  1.0000
  H   H13       1.0  0.19792  0.51923  0.30594  1.0000
  H   H14       1.0  0.19257  0.66400  0.21245  1.0000
  H   H15       1.0  0.08698  0.45942  0.32323  1.0000
  H   H16       1.0  0.08174  0.60271  0.22302  1.0000
  H   H17       1.0  0.99060  0.44989  0.32779  1.0000
  H   H18       1.0  0.72314  0.28530  0.26624  1.0000
  B   B3        1.0  0.27212  0.63352  0.24806  1.0000
  O   O3        1.0  0.30109  0.69240  0.22695  1.0000
  C   C26       1.0  0.72962  0.36740  0.24697  1.0000
  C   C27       1.0  0.69898  0.30647  0.25469  1.0000
  C   C28       1.0  0.50168  0.39384  0.79061  1.0000
  C   C29       1.0  0.53449  0.36498  0.78863  1.0000
  C   C30       1.0  0.59969  0.39160  0.74968  1.0000
  C   C31       1.0  0.63016  0.44900  0.71345  1.0000
  C   C32       1.0  0.59756  0.47855  0.71772  1.0000
  C   C33       1.0  0.53221  0.45145  0.75667  1.0000
  N   N4        1.0  0.49485  0.47571  0.75872  1.0000
  C   C34       1.0  0.40666  0.61162  0.76219  1.0000
  C   C35       1.0  0.46836  0.64641  0.76352  1.0000
  C   C36       1.0  0.38133  0.54970  0.76189  1.0000
  C   C37       1.0  0.50312  0.62060  0.76635  1.0000
  C   C38       1.0  0.41588  0.52351  0.76294  1.0000
  C   C39       1.0  0.47734  0.55892  0.76664  1.0000
  C   C40       1.0  0.51462  0.53328  0.77153  1.0000
  H   H19       1.0  0.45134  0.37295  0.82051  1.0000
  H   H20       1.0  0.50852  0.32144  0.82140  1.0000
  H   H21       1.0  0.68080  0.47018  0.67563  1.0000
  H   H22       1.0  0.62340  0.52183  0.68292  1.0000
  H   H23       1.0  0.48865  0.69409  0.76274  1.0000
  H   H24       1.0  0.33373  0.52242  0.76027  1.0000
  H   H25       1.0  0.55049  0.64810  0.77013  1.0000
  H   H26       1.0  0.39671  0.47587  0.76252  1.0000
  H   H27       1.0  0.56011  0.56631  0.78835  1.0000
  H   H28       1.0  0.71718  0.44188  0.76434  1.0000
  B   B4        1.0  0.36793  0.63995  0.75783  1.0000
  O   O4        1.0  0.30685  0.60484  0.75759  1.0000
  C   C41       1.0  0.63484  0.36075  0.74616  1.0000
  C   C42       1.0  0.69610  0.39299  0.75109  1.0000
  N   N5        1.0  0.52201  0.01687  0.75091  1.0000
  C   C43       1.0  0.38957  0.79281  0.73793  1.0000
  C   C44       1.0  0.35786  0.81736  0.71359  1.0000
  C   C45       1.0  0.44930  0.83109  0.75498  1.0000
  C   C46       1.0  0.38476  0.87733  0.70301  1.0000
  C   C47       1.0  0.47600  0.89136  0.74829  1.0000
  C   C48       1.0  0.44417  0.91525  0.72158  1.0000
  C   C49       1.0  0.47180  0.97784  0.70876  1.0000
  H   H29       1.0  0.31179  0.78837  0.70013  1.0000
  H   H30       1.0  0.47418  0.81287  0.77552  1.0000
  H   H31       1.0  0.36050  0.89512  0.67833  1.0000
  H   H32       1.0  0.52180  0.92125  0.76266  1.0000
  H   H33       1.0  0.44815  0.98901  0.65849  1.0000
  H   H34       1.0  0.56082  0.27253  0.73184  1.0000
  B   B5        1.0  0.36030  0.72551  0.74363  1.0000
  O   O5        1.0  0.39370  0.70096  0.75815  1.0000
  C   C50       1.0  0.63869  0.26861  0.74446  1.0000
  C   C51       1.0  0.60740  0.29853  0.74134  1.0000
  N   N6        1.0  0.98052  0.50398  0.76079  1.0000
  C   C52       1.0  0.01371  0.48389  0.77545  1.0000
  H   H35       1.0  0.99703  0.43692  0.78188  1.0000
  H   H36       1.0  0.72725  0.27955  0.73666  1.0000
  B   B6        1.0  0.27254  0.62929  0.74696  1.0000
  O   O6        1.0  0.30025  0.68892  0.73325  1.0000
  C   C53       1.0  0.73043  0.36408  0.74407  1.0000
  C   C54       1.0  0.70101  0.30190  0.74065  1.0000
  C   C55       1.0  0.83261  0.48258  0.29862  1.0000
  C   C56       1.0  0.80055  0.41881  0.25610  1.0000
  C  Sn1       1.0  0.82975  0.37879  0.21029  1.0000
  C  Sn2       1.0  0.89220  0.40320  0.20717  1.0000
  C   C57       1.0  0.92385  0.46707  0.25007  1.0000
  C   C58       1.0  0.89419  0.50670  0.29565  1.0000
  H   H37       1.0  0.80965  0.51324  0.33400  1.0000
  O  Te1       1.0  0.79704  0.31520  0.16810  1.0000
  O  Te2       1.0  0.92249  0.36426  0.16193  1.0000
  H   H38       1.0  0.91901  0.55607  0.32869  1.0000
  Mg  Mg1       1.0  0.85839  0.28093  0.11484  1.0000
  C   C59       1.0  0.11687  0.59889  0.77896  1.0000
  C   C60       1.0  0.08376  0.53644  0.76689  1.0000
  C  Sn3       1.0  0.11150  0.50085  0.75756  1.0000
  C  Sn4       1.0  0.17355  0.52842  0.76045  1.0000
  C   C61       1.0  0.20627  0.59095  0.77269  1.0000
  C   C62       1.0  0.17806  0.62613  0.78189  1.0000
  H   H39       1.0  0.09505  0.62613  0.78618  1.0000
  O  Te3       1.0  0.07776  0.43851  0.74548  1.0000
  O  Te4       1.0  0.20239  0.49392  0.75138  1.0000
  H   H40       1.0  0.20370  0.67449  0.79135  1.0000
  Mg  Mg2       1.0  0.13728  0.41069  0.73625  1.0000
  C   C63       1.0  0.36801  0.87058  0.23907  1.0000
  C   C64       1.0  0.42606  0.91433  0.25367  1.0000
  C  Sn5       1.0  0.46971  0.89684  0.24699  1.0000
  C  Sn6       1.0  0.45482  0.83436  0.22522  1.0000
  C   C65       1.0  0.39663  0.79094  0.21060  1.0000
  C   C66       1.0  0.35330  0.80894  0.21752  1.0000
  H   H41       1.0  0.33449  0.88450  0.24432  1.0000
  O  Te5       1.0  0.52748  0.94115  0.26186  1.0000
  O  Te6       1.0  0.49758  0.81562  0.21804  1.0000
  H   H42       1.0  0.30836  0.77505  0.20608  1.0000
  Mg  Mg3       1.0  0.57018  0.89304  0.24440  1.0000
  C   C67       1.0  0.84516  0.46911  0.69695  1.0000
  C   C68       1.0  0.80482  0.41101  0.72117  1.0000
  C  Sn7       1.0  0.82097  0.38058  0.77825  1.0000
  C  Sn8       1.0  0.87861  0.40896  0.81165  1.0000
  C   C69       1.0  0.91863  0.46711  0.78715  1.0000
  C   C70       1.0  0.90201  0.49714  0.72993  1.0000
  H   H43       1.0  0.83230  0.49237  0.65278  1.0000
  O  Te7       1.0  0.78013  0.32254  0.80171  1.0000
  O  Te8       1.0  0.89591  0.37958  0.86888  1.0000
  H   H44       1.0  0.93325  0.54214  0.71131  1.0000
  Mg  Mg4       1.0  0.82452  0.30093  0.88151  1.0000
  C   C71       1.0  0.62506  0.12351  0.72865  1.0000
  C   C72       1.0  0.56211  0.08623  0.75700  1.0000
  C  Sn9       1.0  0.51988  0.10780  0.77383  1.0000
  C  Sn10      1.0  0.54122  0.16782  0.76196  1.0000
  C   C73       1.0  0.60430  0.20474  0.73344  1.0000
  C   C74       1.0  0.64615  0.18270  0.71685  1.0000
  H   H45       1.0  0.65745  0.10645  0.71570  1.0000
  O  Te9       1.0  0.95623  0.06996  0.80219  1.0000
  O  Te10      1.0  0.50002  0.19052  0.77824  1.0000
  H   H46       1.0  0.69490  0.21156  0.69477  1.0000
  Mg  Mg5       1.0  0.41898  0.12157  0.81586  1.0000
  C   C75       1.0  0.52357  0.36022  0.23460  1.0000
  C   C76       1.0  0.58556  0.38355  0.22658  1.0000
  C  Sn11      1.0  0.62010  0.44651  0.25207  1.0000
  C  Sn12      1.0  0.59192  0.48676  0.28625  1.0000
  C   C77       1.0  0.52985  0.46297  0.29416  1.0000
  C   C78       1.0  0.49573  0.39988  0.26839  1.0000
  H   H47       1.0  0.49716  0.31142  0.21477  1.0000
  O  Te11      1.0  0.68199  0.46905  0.24353  1.0000
  O  Te12      1.0  0.62535  0.54988  0.31230  1.0000
  H   H48       1.0  0.44772  0.38184  0.27474  1.0000
  Mg  Mg6       1.0  0.70834  0.55859  0.28791  1.0000
