data_image0
_chemical_formula_structural       NCH2BOC2NCH2BOC2NCH2BOC2NCH2BOC2NCH2BOC2NCH2BOC2SnCSn2CSnTe4Mg2SnCSn2CSnTe4Mg2SnCSn2CSnTe4Mg2SnCSn2CSnTe4Mg2SnCSn2CSnTe4Mg2SnCSn2CSnTe4Mg2SnCSn2CSnTe4Mg2SnCSn2CSnTe4Mg2SnCSn2CSnTe4Mg2SnCSn2CSnTe4Mg2SnCSn2CSnTe4Mg2SnCSn2CSnTe4Mg2
_chemical_formula_sum              "N6 C42 H12 B6 O6 Sn48 Te48 Mg24"
_cell_length_a       26.1805
_cell_length_b       26.1995
_cell_length_c       8.43644
_cell_angle_alpha    118.507
_cell_angle_beta     60.1855
_cell_angle_gamma    119.916

_symmetry_space_group_name_H-M    'P1'
_space_group_IT_number       1

loop_
  _space_group_symop_operation_xyz
  'x, y, z'

loop_
  _atom_site_type_symbol
  _atom_site_label
  _atom_site_symmetry_multiplicity
  _atom_site_fract_x
  _atom_site_fract_y
  _atom_site_fract_z
  _atom_site_occupancy
  N   N1        1.0  0.49055  0.47879  0.27572  1.0000
  C   C1        1.0  0.51434  0.53147  0.24539  1.0000
  H   H1        1.0  0.56499  0.55774  0.20676  1.0000
  H   H2        1.0  0.72224  0.43951  0.21304  1.0000
  B   B1        1.0  0.36707  0.64307  0.25799  1.0000
  O   O1        1.0  0.30543  0.60924  0.26333  1.0000
  C   C2        1.0  0.63470  0.36316  0.24064  1.0000
  C   C3        1.0  0.69746  0.39411  0.23310  1.0000
  N   N2        1.0  0.52504  0.02062  0.24829  1.0000
  C   C4        1.0  0.46810  0.98600  0.25219  1.0000
  H   H3        1.0  0.43517  0.00320  0.26483  1.0000
  H   H4        1.0  0.55652  0.27852  0.26542  1.0000
  B   B2        1.0  0.36176  0.72789  0.23147  1.0000
  O   O2        1.0  0.39468  0.70287  0.24564  1.0000
  C   C5        1.0  0.63731  0.27277  0.25341  1.0000
  C   C6        1.0  0.60557  0.30272  0.25250  1.0000
  N   N3        1.0  0.98244  0.50760  0.24081  1.0000
  C   C7        1.0  0.01249  0.49118  0.28165  1.0000
  H   H5        1.0  0.99060  0.44989  0.32779  1.0000
  H   H6        1.0  0.72314  0.28530  0.26624  1.0000
  B   B3        1.0  0.27212  0.63352  0.24806  1.0000
  O   O3        1.0  0.30109  0.69240  0.22695  1.0000
  C   C8        1.0  0.72962  0.36740  0.24697  1.0000
  C   C9        1.0  0.69898  0.30647  0.25469  1.0000
  N   N4        1.0  0.49485  0.47571  0.75872  1.0000
  C   C10       1.0  0.51462  0.53328  0.77153  1.0000
  H   H7        1.0  0.56011  0.56631  0.78835  1.0000
  H   H8        1.0  0.71718  0.44188  0.76434  1.0000
  B   B4        1.0  0.36793  0.63995  0.75783  1.0000
  O   O4        1.0  0.30685  0.60484  0.75759  1.0000
  C   C11       1.0  0.63484  0.36075  0.74616  1.0000
  C   C12       1.0  0.69610  0.39299  0.75109  1.0000
  N   N5        1.0  0.52201  0.01687  0.75091  1.0000
  C   C13       1.0  0.47180  0.97784  0.70876  1.0000
  H   H9        1.0  0.44815  0.98901  0.65849  1.0000
  H   H10       1.0  0.56082  0.27253  0.73184  1.0000
  B   B5        1.0  0.36030  0.72551  0.74363  1.0000
  O   O5        1.0  0.39370  0.70096  0.75815  1.0000
  C   C14       1.0  0.63869  0.26861  0.74446  1.0000
  C   C15       1.0  0.60740  0.29853  0.74134  1.0000
  N   N6        1.0  0.98052  0.50398  0.76079  1.0000
  C   C16       1.0  0.01371  0.48389  0.77545  1.0000
  H   H11       1.0  0.99703  0.43692  0.78188  1.0000
  H   H12       1.0  0.72725  0.27955  0.73666  1.0000
  B   B6        1.0  0.27254  0.62929  0.74696  1.0000
  O   O6        1.0  0.30025  0.68892  0.73325  1.0000
  C   C17       1.0  0.73043  0.36408  0.74407  1.0000
  C   C18       1.0  0.70101  0.30190  0.74065  1.0000
  C  Sn1       1.0  0.61179  0.47112  0.33022  1.0000
  C   C19       1.0  0.59506  0.40837  0.30018  1.0000
  C  Sn2       1.0  0.54527  0.36458  0.23367  1.0000
  C  Sn3       1.0  0.51153  0.38389  0.19627  1.0000
  C   C20       1.0  0.52827  0.44660  0.22627  1.0000
  C  Sn4       1.0  0.57804  0.49043  0.29282  1.0000
  O  Te1       1.0  0.66173  0.51410  0.39677  1.0000
  O  Te2       1.0  0.52941  0.30211  0.20479  1.0000
  O  Te3       1.0  0.46156  0.34085  0.12968  1.0000
  O  Te4       1.0  0.59392  0.55286  0.32167  1.0000
  Mg  Mg1       1.0  0.45779  0.26108  0.11247  1.0000
  Mg  Mg2       1.0  0.66554  0.59393  0.41388  1.0000
  C  Sn5       1.0  0.49437  0.63602  0.30444  1.0000
  C   C21       1.0  0.47564  0.57608  0.30612  1.0000
  C  Sn6       1.0  0.42056  0.53103  0.27125  1.0000
  C  Sn7       1.0  0.38345  0.54619  0.23380  1.0000
  C   C22       1.0  0.40219  0.60610  0.23210  1.0000
  C  Sn8       1.0  0.45725  0.65118  0.26699  1.0000
  O  Te5       1.0  0.54960  0.68032  0.33967  1.0000
  O  Te6       1.0  0.40279  0.47143  0.27375  1.0000
  O  Te7       1.0  0.32818  0.50183  0.19857  1.0000
  O  Te8       1.0  0.47504  0.71075  0.26447  1.0000
  Mg  Mg3       1.0  0.32367  0.42711  0.21731  1.0000
  Mg  Mg4       1.0  0.55416  0.75509  0.32079  1.0000
  C  Sn9       1.0  0.53141  0.16036  0.25904  1.0000
  C   C23       1.0  0.58573  0.20439  0.30097  1.0000
  C  Sn10      1.0  0.62702  0.18617  0.30405  1.0000
  C  Sn11      1.0  0.61375  0.12261  0.26428  1.0000
  C   C24       1.0  0.55946  0.07862  0.22235  1.0000
  C  Sn12      1.0  0.51814  0.09681  0.21927  1.0000
  O  Te9       1.0  0.49080  0.17963  0.25674  1.0000
  O  Te10      1.0  0.68102  0.23103  0.34640  1.0000
  O  Te11      1.0  0.65441  0.10337  0.26661  1.0000
  O  Te12      1.0  0.46417  0.05198  0.17691  1.0000
  Mg  Mg5       1.0  0.72193  0.18184  0.33199  1.0000
  Mg  Mg6       1.0  0.42325  0.10111  0.19119  1.0000
  C  Sn13      1.0  0.36351  0.83155  0.18079  1.0000
  C   C25       1.0  0.39184  0.79733  0.17586  1.0000
  C  Sn14      1.0  0.44636  0.82719  0.22222  1.0000
  C  Sn15      1.0  0.47309  0.89263  0.27473  1.0000
  C   C26       1.0  0.44475  0.92681  0.27968  1.0000
  C  Sn16      1.0  0.39024  0.89699  0.23330  1.0000
  O  Te13      1.0  0.30903  0.80073  0.13390  1.0000
  O  Te14      1.0  0.47385  0.79199  0.21620  1.0000
  O  Te15      1.0  0.52762  0.92344  0.32164  1.0000
  O  Te16      1.0  0.36275  0.93216  0.23934  1.0000
  Mg  Mg7       1.0  0.54768  0.85523  0.29243  1.0000
  Mg  Mg8       1.0  0.28890  0.86897  0.16324  1.0000
  C  Sn17      1.0  0.86282  0.49973  0.34410  1.0000
  C   C27       1.0  0.90861  0.47703  0.29605  1.0000
  C  Sn18      1.0  0.89958  0.41399  0.20684  1.0000
  C  Sn19      1.0  0.84364  0.37278  0.16466  1.0000
  C   C28       1.0  0.79790  0.39548  0.21267  1.0000
  C  Sn20      1.0  0.80688  0.45852  0.30192  1.0000
  O  Te17      1.0  0.87283  0.56293  0.43321  1.0000
  O  Te18      1.0  0.94603  0.39238  0.16024  1.0000
  O  Te19      1.0  0.83366  0.30953  0.07549  1.0000
  O  Te20      1.0  0.76048  0.48013  0.34848  1.0000
  Mg  Mg9       1.0  0.91070  0.30236  0.04003  1.0000
  Mg  Mg10      1.0  0.79576  0.57014  0.46859  1.0000
  C  Sn21      1.0  0.15016  0.62327  0.29157  1.0000
  C   C29       1.0  0.19016  0.60695  0.30848  1.0000
  C  Sn22      1.0  0.17547  0.54576  0.29042  1.0000
  C  Sn23      1.0  0.11965  0.49991  0.25459  1.0000
  C   C30       1.0  0.07969  0.51623  0.23767  1.0000
  C  Sn24      1.0  0.09434  0.57742  0.25575  1.0000
  O  Te21      1.0  0.16578  0.68472  0.31013  1.0000
  O  Te22      1.0  0.21618  0.53057  0.30794  1.0000
  O  Te23      1.0  0.10404  0.43842  0.23604  1.0000
  O  Te24      1.0  0.05367  0.59261  0.23821  1.0000
  Mg  Mg11      1.0  0.17448  0.44057  0.27130  1.0000
  Mg  Mg12      1.0  0.09534  0.68259  0.27472  1.0000
  C  Sn25      1.0  0.61083  0.46648  0.65713  1.0000
  C   C31       1.0  0.54634  0.44801  0.70176  1.0000
  C  Sn26      1.0  0.50455  0.40221  0.79204  1.0000
  C  Sn27      1.0  0.52769  0.37431  0.83881  1.0000
  C   C32       1.0  0.59213  0.39278  0.79422  1.0000
  C  Sn28      1.0  0.63396  0.43858  0.70390  1.0000
  O  Te25      1.0  0.65175  0.51236  0.56688  1.0000
  O  Te26      1.0  0.44029  0.38451  0.83517  1.0000
  O  Te27      1.0  0.48670  0.32840  0.92913  1.0000
  O  Te28      1.0  0.69819  0.45629  0.66082  1.0000
  Mg  Mg13      1.0  0.40325  0.32004  0.95865  1.0000
  Mg  Mg14      1.0  0.73527  0.52078  0.53743  1.0000
  C  Sn29      1.0  0.49255  0.63571  0.82366  1.0000
  C   C33       1.0  0.47494  0.57543  0.82041  1.0000
  C  Sn30      1.0  0.42320  0.52884  0.76801  1.0000
  C  Sn31      1.0  0.38836  0.54278  0.71768  1.0000
  C   C34       1.0  0.40598  0.60304  0.72091  1.0000
  C  Sn32      1.0  0.45771  0.64966  0.77333  1.0000
  O  Te29      1.0  0.54444  0.68156  0.87648  1.0000
  O  Te30      1.0  0.40648  0.46892  0.76591  1.0000
  O  Te31      1.0  0.33643  0.49688  0.66484  1.0000
  O  Te32      1.0  0.47443  0.70955  0.77542  1.0000
  Mg  Mg15      1.0  0.33216  0.42230  0.68380  1.0000
  Mg  Mg16      1.0  0.54876  0.75618  0.85740  1.0000
  C  Sn33      1.0  0.61512  0.12887  0.79287  1.0000
  C   C35       1.0  0.55353  0.09042  0.80154  1.0000
  C  Sn34      1.0  0.51748  0.10642  0.76607  1.0000
  C  Sn35      1.0  0.54354  0.16200  0.72085  1.0000
  C   C36       1.0  0.60510  0.20041  0.71216  1.0000
  C  Sn36      1.0  0.64118  0.18445  0.74765  1.0000
  O  Te33      1.0  0.65030  0.11196  0.82884  1.0000
  O  Te34      1.0  0.95510  0.06724  0.77564  1.0000
  O  Te35      1.0  0.50830  0.17889  0.68487  1.0000
  O  Te36      1.0  0.70262  0.22359  0.73806  1.0000
  Mg  Mg17      1.0  0.42680  0.11032  0.71504  1.0000
  Mg  Mg18      1.0  0.73187  0.18055  0.79854  1.0000
  C  Sn37      1.0  0.36812  0.82291  0.65161  1.0000
  C   C37       1.0  0.39187  0.79319  0.68589  1.0000
  C  Sn38      1.0  0.44168  0.82717  0.75615  1.0000
  C  Sn39      1.0  0.46829  0.89222  0.79303  1.0000
  C   C38       1.0  0.44453  0.92190  0.75878  1.0000
  C  Sn40      1.0  0.39473  0.88795  0.68849  1.0000
  O  Te37      1.0  0.31830  0.78801  0.58136  1.0000
  O  Te38      1.0  0.46464  0.79643  0.78925  1.0000
  O  Te39      1.0  0.51815  0.92710  0.86333  1.0000
  O  Te40      1.0  0.37177  0.91866  0.65543  1.0000
  Mg  Mg19      1.0  0.53308  0.86417  0.88558  1.0000
  Mg  Mg20      1.0  0.30332  0.85098  0.55920  1.0000
  C  Sn41      1.0  0.82955  0.39178  0.85865  1.0000
  C   C39       1.0  0.79592  0.40545  0.80619  1.0000
  C  Sn42      1.0  0.82681  0.44829  0.70586  1.0000
  C  Sn43      1.0  0.89270  0.47808  0.65683  1.0000
  C   C40       1.0  0.92630  0.46440  0.70926  1.0000
  C  Sn44      1.0  0.89544  0.42156  0.80963  1.0000
  O  Te41      1.0  0.79771  0.34879  0.95890  1.0000
  O  Te42      1.0  0.79217  0.46122  0.65502  1.0000
  O  Te43      1.0  0.92453  0.52109  0.55651  1.0000
  O  Te44      1.0  0.93004  0.40863  0.86042  1.0000
  Mg  Mg21      1.0  0.85678  0.52317  0.51913  1.0000
  Mg  Mg22      1.0  0.86549  0.34666  0.99623  1.0000
  C  Sn45      1.0  0.16959  0.51245  0.69912  1.0000
  C   C41       1.0  0.20276  0.57410  0.70108  1.0000
  C  Sn46      1.0  0.17099  0.61321  0.75855  1.0000
  C  Sn47      1.0  0.10468  0.59023  0.81537  1.0000
  C   C42       1.0  0.07154  0.52862  0.81342  1.0000
  C  Sn48      1.0  0.10327  0.48947  0.75593  1.0000
  O  Te45      1.0  0.20231  0.47419  0.64114  1.0000
  O  Te46      1.0  0.20518  0.67466  0.75926  1.0000
  O  Te47      1.0  0.07197  0.62856  0.87337  1.0000
  O  Te48      1.0  0.06912  0.42806  0.75523  1.0000
  Mg  Mg23      1.0  0.13938  0.70874  0.85004  1.0000
  Mg  Mg24      1.0  0.13486  0.39395  0.66459  1.0000
