data_image0
_chemical_formula_structural       N6C18H6C6O6C4H4C4H4C16H18N6C18H6C6O6C8H8C8H8C20H18C2Sn2C2HTe2HMgC2Sn2C2HTe2HMgC2Sn2C2HTe2HMgC2Sn2C2HTe2HMgC2Sn2C2HTe2HMgC2Sn2C2HTe2HMg
_chemical_formula_sum              "N12 C132 H84 O12 Sn12 Te12 Mg6"
_cell_length_a       36.9462
_cell_length_b       37.0045
_cell_length_c       8.25056
_cell_angle_alpha    97.4314
_cell_angle_beta     112.453
_cell_angle_gamma    120.037

_symmetry_space_group_name_H-M    'P1'
_space_group_IT_number       1

loop_
  _space_group_symop_operation_xyz
  'x, y, z'

loop_
  _atom_site_type_symbol
  _atom_site_label
  _atom_site_symmetry_multiplicity
  _atom_site_fract_x
  _atom_site_fract_y
  _atom_site_fract_z
  _atom_site_occupancy
  N   N1        1.0  0.43932  0.54938  0.27162  1.0000
  N   N2        1.0  0.45647  0.89276  0.27915  1.0000
  N   N3        1.0  0.10569  0.55890  0.21158  1.0000
  N   N4        1.0  0.55252  0.44118  0.27607  1.0000
  N   N5        1.0  0.89440  0.45468  0.28787  1.0000
  N   N6        1.0  0.56032  0.10786  0.21875  1.0000
  C   C1        1.0  0.42295  0.51030  0.28768  1.0000
  C   C2        1.0  0.49913  0.91603  0.29360  1.0000
  C   C3        1.0  0.08718  0.57976  0.23732  1.0000
  C   C4        1.0  0.51481  0.42435  0.29802  1.0000
  C   C5        1.0  0.91803  0.49642  0.29915  1.0000
  C   C6        1.0  0.58210  0.08827  0.24278  1.0000
  C   C7        1.0  0.44715  0.48949  0.29244  1.0000
  C   C8        1.0  0.52012  0.96007  0.28557  1.0000
  C   C9        1.0  0.04465  0.55804  0.25417  1.0000
  C   C10       1.0  0.49246  0.44683  0.29687  1.0000
  C   C11       1.0  0.96122  0.51700  0.28671  1.0000
  C   C12       1.0  0.56080  0.04507  0.25824  1.0000
  C   C13       1.0  0.42707  0.44619  0.30347  1.0000
  C   C14       1.0  0.56620  0.98378  0.29829  1.0000
  C   C15       1.0  0.02618  0.58241  0.28255  1.0000
  C   C16       1.0  0.44931  0.42546  0.30657  1.0000
  C   C17       1.0  0.98537  0.56234  0.29777  1.0000
  C   C18       1.0  0.58609  0.02532  0.28511  1.0000
  H   H1        1.0  0.39440  0.43044  0.31300  1.0000
  H   H2        1.0  0.58499  0.96816  0.31645  1.0000
  H   H3        1.0  0.04474  0.61699  0.28965  1.0000
  H   H4        1.0  0.43441  0.39258  0.31684  1.0000
  H   H5        1.0  0.97099  0.58074  0.31954  1.0000
  H   H6        1.0  0.62090  0.04344  0.29141  1.0000
  C   C19       1.0  0.51306  0.48996  0.28494  1.0000
  C   C20       1.0  0.51503  0.02239  0.24745  1.0000
  C   C21       1.0  0.97915  0.49201  0.25979  1.0000
  C   C22       1.0  0.49038  0.51172  0.28427  1.0000
  C   C23       1.0  0.02132  0.51274  0.24313  1.0000
  C   C24       1.0  0.49445  0.97935  0.26110  1.0000
  O   O1        1.0  0.55342  0.51122  0.27443  1.0000
  O   O2        1.0  0.49045  0.04009  0.22539  1.0000
  O   O3        1.0  0.95764  0.44926  0.24910  1.0000
  O   O4        1.0  0.51026  0.55225  0.27203  1.0000
  O   O5        1.0  0.03766  0.48867  0.21749  1.0000
  O   O6        1.0  0.45111  0.95835  0.24915  1.0000
  C   C25       1.0  0.54685  0.37053  0.21158  1.0000
  C   C26       1.0  0.18451  0.62921  0.29414  1.0000
  C   C27       1.0  0.56948  0.35005  0.20508  1.0000
  C   C28       1.0  0.22803  0.64902  0.29517  1.0000
  H   H7        1.0  0.50847  0.34936  0.16865  1.0000
  H   H8        1.0  0.17885  0.65078  0.36715  1.0000
  H   H9        1.0  0.54791  0.31319  0.15619  1.0000
  H   H10       1.0  0.25520  0.68582  0.36599  1.0000
  C   C29       1.0  0.62145  0.44365  0.31190  1.0000
  C   C30       1.0  0.15966  0.55479  0.12857  1.0000
  C   C31       1.0  0.64395  0.42292  0.30760  1.0000
  C   C32       1.0  0.20338  0.57495  0.13060  1.0000
  H   H11       1.0  0.64152  0.48029  0.35349  1.0000
  H   H12       1.0  0.13215  0.51801  0.06091  1.0000
  H   H13       1.0  0.68213  0.44427  0.34816  1.0000
  H   H14       1.0  0.20959  0.55343  0.06092  1.0000
  C   C33       1.0  0.64245  0.28653  0.21818  1.0000
  C   C34       1.0  0.70713  0.35482  0.21922  1.0000
  C   C35       1.0  0.64165  0.35296  0.23823  1.0000
  C   C36       1.0  0.28610  0.64446  0.22404  1.0000
  C   C37       1.0  0.35625  0.71069  0.24098  1.0000
  C   C38       1.0  0.35295  0.64275  0.24231  1.0000
  C   C39       1.0  0.57259  0.41796  0.26669  1.0000
  C   C40       1.0  0.14935  0.58149  0.21037  1.0000
  C   C41       1.0  0.61867  0.37550  0.25320  1.0000
  C   C42       1.0  0.23884  0.62255  0.21514  1.0000
  C   C43       1.0  0.68470  0.31000  0.20702  1.0000
  C   C44       1.0  0.68418  0.37524  0.22856  1.0000
  C   C45       1.0  0.62187  0.30897  0.23627  1.0000
  C   C46       1.0  0.31099  0.68871  0.22987  1.0000
  C   C47       1.0  0.37713  0.68742  0.25119  1.0000
  C   C48       1.0  0.30716  0.62169  0.22655  1.0000
  H   H15       1.0  0.59097  0.29279  0.25669  1.0000
  H   H16       1.0  0.70070  0.29322  0.18728  1.0000
  H   H17       1.0  0.70009  0.40926  0.23016  1.0000
  H   H18       1.0  0.28782  0.58722  0.21986  1.0000
  H   H19       1.0  0.29381  0.70572  0.21957  1.0000
  H   H20       1.0  0.41319  0.70460  0.26894  1.0000
  H   H21       1.0  0.56249  0.48930  0.27072  1.0000
  H   H22       1.0  0.51134  0.07031  0.21601  1.0000
  H   H23       1.0  0.92890  0.44161  0.26657  1.0000
  H   H24       1.0  0.48780  0.56098  0.27070  1.0000
  H   H25       1.0  0.06705  0.50957  0.20502  1.0000
  H   H26       1.0  0.44323  0.92835  0.26108  1.0000
  H   H27       1.0  0.38997  0.49153  0.29640  1.0000
  H   H28       1.0  0.52053  0.90276  0.31184  1.0000
  H   H29       1.0  0.10309  0.61462  0.24531  1.0000
  H   H30       1.0  0.49921  0.39262  0.32038  1.0000
  H   H31       1.0  0.90574  0.51733  0.31820  1.0000
  H   H32       1.0  0.61768  0.10397  0.25394  1.0000
  N   N7        1.0  0.44518  0.55481  0.78190  1.0000
  N   N8        1.0  0.45056  0.89143  0.77865  1.0000
  N   N9        1.0  0.10359  0.55496  0.70666  1.0000
  N   N10       1.0  0.55431  0.44251  0.77921  1.0000
  N   N11       1.0  0.89365  0.45194  0.78938  1.0000
  N   N12       1.0  0.55545  0.10761  0.72517  1.0000
  C   C49       1.0  0.42906  0.51603  0.80080  1.0000
  C   C50       1.0  0.49389  0.91558  0.79906  1.0000
  C   C51       1.0  0.08507  0.57591  0.73135  1.0000
  C   C52       1.0  0.51475  0.42497  0.78847  1.0000
  C   C53       1.0  0.91720  0.49364  0.80023  1.0000
  C   C54       1.0  0.57798  0.08878  0.75674  1.0000
  C   C55       1.0  0.45139  0.49371  0.79726  1.0000
  C   C56       1.0  0.51459  0.95940  0.78916  1.0000
  C   C57       1.0  0.04294  0.55455  0.75047  1.0000
  C   C58       1.0  0.49412  0.44891  0.79360  1.0000
  C   C59       1.0  0.96033  0.51417  0.78766  1.0000
  C   C60       1.0  0.55591  0.04483  0.76575  1.0000
  C   C61       1.0  0.43001  0.45002  0.80441  1.0000
  C   C62       1.0  0.56149  0.98381  0.80905  1.0000
  C   C63       1.0  0.02467  0.57910  0.77923  1.0000
  C   C64       1.0  0.45063  0.42794  0.80061  1.0000
  C   C65       1.0  0.98433  0.55940  0.79748  1.0000
  C   C66       1.0  0.58175  0.02560  0.79830  1.0000
  H   H33       1.0  0.39750  0.43485  0.81498  1.0000
  H   H34       1.0  0.58077  0.96863  0.83206  1.0000
  H   H35       1.0  0.04298  0.61348  0.78404  1.0000
  H   H36       1.0  0.43452  0.39446  0.80550  1.0000
  H   H37       1.0  0.97025  0.57800  0.82085  1.0000
  H   H38       1.0  0.61739  0.04438  0.81146  1.0000
  C   C67       1.0  0.51641  0.49270  0.78825  1.0000
  C   C68       1.0  0.50883  0.02099  0.74338  1.0000
  C   C69       1.0  0.97813  0.48906  0.76084  1.0000
  C   C70       1.0  0.49433  0.51506  0.78703  1.0000
  C   C71       1.0  0.02004  0.50954  0.74250  1.0000
  C   C72       1.0  0.48814  0.97792  0.75695  1.0000
  O   O7        1.0  0.55739  0.51366  0.78191  1.0000
  O   O8        1.0  0.48328  0.03779  0.71235  1.0000
  O   O9        1.0  0.95683  0.44649  0.75185  1.0000
  O   O10       1.0  0.51506  0.55580  0.77655  1.0000
  O   O11       1.0  0.03640  0.48544  0.71766  1.0000
  O   O12       1.0  0.44395  0.95618  0.73800  1.0000
  C   C73       1.0  0.56195  0.38041  0.81424  1.0000
  C   C74       1.0  0.61575  0.17093  0.68199  1.0000
  C   C75       1.0  0.81639  0.44166  0.70664  1.0000
  C   C76       1.0  0.18186  0.62545  0.78970  1.0000
  C   C77       1.0  0.58307  0.35893  0.79852  1.0000
  C   C78       1.0  0.63509  0.21363  0.67587  1.0000
  C   C79       1.0  0.77080  0.41676  0.68902  1.0000
  C   C80       1.0  0.22591  0.64588  0.79527  1.0000
  H   H39       1.0  0.53710  0.36788  0.86701  1.0000
  H   H40       1.0  0.62999  0.15283  0.65447  1.0000
  H   H41       1.0  0.82611  0.46872  0.65489  1.0000
  H   H42       1.0  0.17530  0.64660  0.85936  1.0000
  H   H43       1.0  0.57405  0.33021  0.83980  1.0000
  H   H44       1.0  0.66381  0.22741  0.64239  1.0000
  H   H45       1.0  0.74604  0.42547  0.62724  1.0000
  H   H46       1.0  0.25263  0.68274  0.86603  1.0000
  C   C81       1.0  0.55787  0.17395  0.73940  1.0000
  C   C82       1.0  0.83280  0.39209  0.82690  1.0000
  C   C83       1.0  0.60972  0.43610  0.71868  1.0000
  C   C84       1.0  0.15892  0.55137  0.63127  1.0000
  C   C85       1.0  0.57824  0.21716  0.73759  1.0000
  C   C86       1.0  0.78718  0.36749  0.80937  1.0000
  C   C87       1.0  0.63056  0.41429  0.70266  1.0000
  C   C88       1.0  0.20332  0.57217  0.63827  1.0000
  H   H47       1.0  0.52798  0.15836  0.76620  1.0000
  H   H48       1.0  0.85762  0.38314  0.88265  1.0000
  H   H49       1.0  0.61945  0.46597  0.68530  1.0000
  H   H50       1.0  0.13211  0.51446  0.56541  1.0000
  H   H51       1.0  0.56398  0.23511  0.76627  1.0000
  H   H52       1.0  0.77698  0.33954  0.85586  1.0000
  H   H53       1.0  0.65650  0.42763  0.65522  1.0000
  H   H54       1.0  0.21085  0.55113  0.57442  1.0000
  C   C89       1.0  0.63911  0.28446  0.70494  1.0000
  C   C90       1.0  0.70695  0.35365  0.72469  1.0000
  C   C91       1.0  0.63949  0.35148  0.72352  1.0000
  C   C92       1.0  0.28536  0.64252  0.73139  1.0000
  C   C93       1.0  0.35296  0.70859  0.73506  1.0000
  C   C94       1.0  0.35229  0.64205  0.74335  1.0000
  C   C95       1.0  0.57682  0.15027  0.71507  1.0000
  C   C96       1.0  0.84844  0.42992  0.77770  1.0000
  C   C97       1.0  0.57437  0.41915  0.77153  1.0000
  C   C98       1.0  0.14741  0.57766  0.70697  1.0000
  C   C99       1.0  0.61726  0.23830  0.70511  1.0000
  C   C100      1.0  0.75501  0.37916  0.74000  1.0000
  C   C101      1.0  0.61740  0.37479  0.73984  1.0000
  C   C102      1.0  0.23797  0.61990  0.72128  1.0000
  C   C103      1.0  0.68379  0.30871  0.71128  1.0000
  C   C104      1.0  0.68459  0.37470  0.73331  1.0000
  C   C105      1.0  0.61686  0.30609  0.70528  1.0000
  C   C106      1.0  0.30836  0.68609  0.72940  1.0000
  C   C107      1.0  0.37385  0.68549  0.73888  1.0000
  C   C108      1.0  0.30824  0.62127  0.74217  1.0000
  H   H55       1.0  0.58137  0.28747  0.69278  1.0000
  H   H56       1.0  0.70129  0.29254  0.70663  1.0000
  H   H57       1.0  0.70353  0.41033  0.75489  1.0000
  H   H58       1.0  0.29228  0.58894  0.75713  1.0000
  H   H59       1.0  0.29008  0.70203  0.71749  1.0000
  H   H60       1.0  0.40746  0.70147  0.73655  1.0000
  H   H61       1.0  0.56588  0.49120  0.77868  1.0000
  H   H62       1.0  0.50462  0.06841  0.70672  1.0000
  H   H63       1.0  0.92816  0.43894  0.76990  1.0000
  H   H64       1.0  0.49343  0.56533  0.77686  1.0000
  H   H65       1.0  0.06554  0.50615  0.70329  1.0000
  H   H66       1.0  0.43640  0.92656  0.75305  1.0000
  H   H67       1.0  0.39805  0.49927  0.82260  1.0000
  H   H68       1.0  0.51620  0.90320  0.82425  1.0000
  H   H69       1.0  0.10073  0.61061  0.73747  1.0000
  H   H70       1.0  0.49508  0.39086  0.78874  1.0000
  H   H71       1.0  0.90487  0.51454  0.81862  1.0000
  H   H72       1.0  0.61495  0.10602  0.78013  1.0000
  C   C109      1.0  0.44454  0.80879  0.21519  1.0000
  C   C110      1.0  0.43672  0.84144  0.25109  1.0000
  C  Sn1       1.0  0.40111  0.83252  0.29636  1.0000
  C  Sn2       1.0  0.37286  0.79010  0.30581  1.0000
  C   C111      1.0  0.38099  0.75767  0.26978  1.0000
  C   C112      1.0  0.41671  0.76695  0.22455  1.0000
  H   H73       1.0  0.47219  0.81597  0.18030  1.0000
  O  Te1       1.0  0.39376  0.86551  0.33175  1.0000
  O  Te2       1.0  0.33705  0.78030  0.35080  1.0000
  H   H74       1.0  0.42277  0.74167  0.19689  1.0000
  Mg  Mg1       1.0  0.34064  0.83620  0.38732  1.0000
  C   C113      1.0  0.55730  0.18086  0.21591  1.0000
  C   C114      1.0  0.57333  0.15414  0.20134  1.0000
  C  Sn3       1.0  0.61667  0.17185  0.20058  1.0000
  C  Sn4       1.0  0.64441  0.21717  0.21475  1.0000
  C   C115      1.0  0.62808  0.24363  0.22940  1.0000
  C   C116      1.0  0.58464  0.22557  0.22996  1.0000
  H   H75       1.0  0.52371  0.16690  0.21644  1.0000
  O  Te3       1.0  0.63215  0.14468  0.18586  1.0000
  O  Te4       1.0  0.68787  0.23572  0.21441  1.0000
  H   H76       1.0  0.57226  0.24627  0.24137  1.0000
  Mg  Mg2       1.0  0.69381  0.18526  0.19144  1.0000
  C   C117      1.0  0.37117  0.55892  0.31858  1.0000
  C   C118      1.0  0.40486  0.56417  0.26693  1.0000
  C  Sn5       1.0  0.42653  0.59957  0.21144  1.0000
  C  Sn6       1.0  0.41419  0.63024  0.20779  1.0000
  C   C119      1.0  0.38047  0.62471  0.25985  1.0000
  C   C120      1.0  0.35899  0.58916  0.31509  1.0000
  H   H77       1.0  0.35457  0.53143  0.36142  1.0000
  O  Te5       1.0  0.46010  0.60432  0.16022  1.0000
  O  Te6       1.0  0.43531  0.66593  0.15297  1.0000
  H   H78       1.0  0.33293  0.58512  0.35519  1.0000
  Mg  Mg3       1.0  0.47907  0.65831  0.09574  1.0000
  C   C121      1.0  0.37761  0.81763  0.79386  1.0000
  C   C122      1.0  0.41869  0.84308  0.77853  1.0000
  C  Sn7       1.0  0.43884  0.82298  0.73217  1.0000
  C  Sn8       1.0  0.41737  0.77653  0.70061  1.0000
  C   C123      1.0  0.37626  0.75135  0.71615  1.0000
  C   C124      1.0  0.35640  0.77181  0.76267  1.0000
  H   H79       1.0  0.36222  0.83345  0.82975  1.0000
  O  Te7       1.0  0.47990  0.84890  0.71751  1.0000
  O  Te8       1.0  0.43675  0.75558  0.65402  1.0000
  H   H80       1.0  0.32458  0.75209  0.77441  1.0000
  Mg  Mg4       1.0  0.49299  0.80510  0.65069  1.0000
  C   C125      1.0  0.34789  0.56085  0.69489  1.0000
  C   C126      1.0  0.36894  0.60725  0.74809  1.0000
  C  Sn9       1.0  0.41821  0.63868  0.80857  1.0000
  C  Sn10      1.0  0.44685  0.62326  0.81574  1.0000
  C   C127      1.0  0.42543  0.57677  0.76209  1.0000
  C   C128      1.0  0.37610  0.54562  0.70184  1.0000
  H   H81       1.0  0.30971  0.53675  0.64817  1.0000
  O  Te9       1.0  0.43867  0.68491  0.86128  1.0000
  O  Te10      1.0  0.49617  0.65393  0.87558  1.0000
  H   H82       1.0  0.35980  0.50969  0.66055  1.0000
  Mg  Mg5       1.0  0.50744  0.71352  0.93301  1.0000
  C   C129      1.0  0.82503  0.38575  0.33531  1.0000
  C   C130      1.0  0.84461  0.42092  0.27577  1.0000
  C  Sn11      1.0  0.81897  0.43811  0.19910  1.0000
  C  Sn12      1.0  0.77288  0.41969  0.18194  1.0000
  C   C131      1.0  0.75362  0.38452  0.24204  1.0000
  C   C132      1.0  0.77958  0.36757  0.31851  1.0000
  H   H83       1.0  0.84512  0.37264  0.39458  1.0000
  O  Te11      1.0  0.83906  0.47325  0.14025  1.0000
  O  Te12      1.0  0.74648  0.43624  0.10588  1.0000
  H   H84       1.0  0.76442  0.34036  0.36471  1.0000
  Mg  Mg6       1.0  0.78915  0.48437  0.04566  1.0000
