data_image0
_chemical_formula_structural       N6C18H6C6O6C12H18N6C18H6C6O6C12H18SnCSn2CSnTe4Mg2SnCSn2CSnTe4Mg2SnCSn2CSnTe4Mg2SnCSn2CSnTe4Mg2SnCSn2CSnTe4Mg2SnCSn2CSnTe4Mg2SnCSn2CSnTe4Mg2SnCSn2CSnTe4Mg2SnCSn2CSnTe4Mg2SnCSn2CSnTe4Mg2SnCSn2CSnTe4Mg2SnCSn2CSnTe4Mg2
_chemical_formula_sum              "N12 C96 H48 O12 Sn48 Te48 Mg24"
_cell_length_a       36.9462
_cell_length_b       37.0045
_cell_length_c       8.25056
_cell_angle_alpha    97.4314
_cell_angle_beta     112.453
_cell_angle_gamma    120.037

_symmetry_space_group_name_H-M    'P1'
_space_group_IT_number       1

loop_
  _space_group_symop_operation_xyz
  'x, y, z'

loop_
  _atom_site_type_symbol
  _atom_site_label
  _atom_site_symmetry_multiplicity
  _atom_site_fract_x
  _atom_site_fract_y
  _atom_site_fract_z
  _atom_site_occupancy
  N   N1        1.0  0.43932  0.54938  0.27162  1.0000
  N   N2        1.0  0.45647  0.89276  0.27915  1.0000
  N   N3        1.0  0.10569  0.55890  0.21158  1.0000
  N   N4        1.0  0.55252  0.44118  0.27607  1.0000
  N   N5        1.0  0.89440  0.45468  0.28787  1.0000
  N   N6        1.0  0.56032  0.10786  0.21875  1.0000
  C   C1        1.0  0.42295  0.51030  0.28768  1.0000
  C   C2        1.0  0.49913  0.91603  0.29360  1.0000
  C   C3        1.0  0.08718  0.57976  0.23732  1.0000
  C   C4        1.0  0.51481  0.42435  0.29802  1.0000
  C   C5        1.0  0.91803  0.49642  0.29915  1.0000
  C   C6        1.0  0.58210  0.08827  0.24278  1.0000
  C   C7        1.0  0.44715  0.48949  0.29244  1.0000
  C   C8        1.0  0.52012  0.96007  0.28557  1.0000
  C   C9        1.0  0.04465  0.55804  0.25417  1.0000
  C   C10       1.0  0.49246  0.44683  0.29687  1.0000
  C   C11       1.0  0.96122  0.51700  0.28671  1.0000
  C   C12       1.0  0.56080  0.04507  0.25824  1.0000
  C   C13       1.0  0.42707  0.44619  0.30347  1.0000
  C   C14       1.0  0.56620  0.98378  0.29829  1.0000
  C   C15       1.0  0.02618  0.58241  0.28255  1.0000
  C   C16       1.0  0.44931  0.42546  0.30657  1.0000
  C   C17       1.0  0.98537  0.56234  0.29777  1.0000
  C   C18       1.0  0.58609  0.02532  0.28511  1.0000
  H   H1        1.0  0.39440  0.43044  0.31300  1.0000
  H   H2        1.0  0.58499  0.96816  0.31645  1.0000
  H   H3        1.0  0.04474  0.61699  0.28965  1.0000
  H   H4        1.0  0.43441  0.39258  0.31684  1.0000
  H   H5        1.0  0.97099  0.58074  0.31954  1.0000
  H   H6        1.0  0.62090  0.04344  0.29141  1.0000
  C   C19       1.0  0.51306  0.48996  0.28494  1.0000
  C   C20       1.0  0.51503  0.02239  0.24745  1.0000
  C   C21       1.0  0.97915  0.49201  0.25979  1.0000
  C   C22       1.0  0.49038  0.51172  0.28427  1.0000
  C   C23       1.0  0.02132  0.51274  0.24313  1.0000
  C   C24       1.0  0.49445  0.97935  0.26110  1.0000
  O   O1        1.0  0.55342  0.51122  0.27443  1.0000
  O   O2        1.0  0.49045  0.04009  0.22539  1.0000
  O   O3        1.0  0.95764  0.44926  0.24910  1.0000
  O   O4        1.0  0.51026  0.55225  0.27203  1.0000
  O   O5        1.0  0.03766  0.48867  0.21749  1.0000
  O   O6        1.0  0.45111  0.95835  0.24915  1.0000
  C   C25       1.0  0.64245  0.28653  0.21818  1.0000
  C   C26       1.0  0.70713  0.35482  0.21922  1.0000
  C   C27       1.0  0.64165  0.35296  0.23823  1.0000
  C   C28       1.0  0.28610  0.64446  0.22404  1.0000
  C   C29       1.0  0.35625  0.71069  0.24098  1.0000
  C   C30       1.0  0.35295  0.64275  0.24231  1.0000
  C   C31       1.0  0.68470  0.31000  0.20702  1.0000
  C   C32       1.0  0.68418  0.37524  0.22856  1.0000
  C   C33       1.0  0.62187  0.30897  0.23627  1.0000
  C   C34       1.0  0.31099  0.68871  0.22987  1.0000
  C   C35       1.0  0.37713  0.68742  0.25119  1.0000
  C   C36       1.0  0.30716  0.62169  0.22655  1.0000
  H   H7        1.0  0.59097  0.29279  0.25669  1.0000
  H   H8        1.0  0.70070  0.29322  0.18728  1.0000
  H   H9        1.0  0.70009  0.40926  0.23016  1.0000
  H   H10       1.0  0.28782  0.58722  0.21986  1.0000
  H   H11       1.0  0.29381  0.70572  0.21957  1.0000
  H   H12       1.0  0.41319  0.70460  0.26894  1.0000
  H   H13       1.0  0.56249  0.48930  0.27072  1.0000
  H   H14       1.0  0.51134  0.07031  0.21601  1.0000
  H   H15       1.0  0.92890  0.44161  0.26657  1.0000
  H   H16       1.0  0.48780  0.56098  0.27070  1.0000
  H   H17       1.0  0.06705  0.50957  0.20502  1.0000
  H   H18       1.0  0.44323  0.92835  0.26108  1.0000
  H   H19       1.0  0.38997  0.49153  0.29640  1.0000
  H   H20       1.0  0.52053  0.90276  0.31184  1.0000
  H   H21       1.0  0.10309  0.61462  0.24531  1.0000
  H   H22       1.0  0.49921  0.39262  0.32038  1.0000
  H   H23       1.0  0.90574  0.51733  0.31820  1.0000
  H   H24       1.0  0.61768  0.10397  0.25394  1.0000
  N   N7        1.0  0.44518  0.55481  0.78190  1.0000
  N   N8        1.0  0.45056  0.89143  0.77865  1.0000
  N   N9        1.0  0.10359  0.55496  0.70666  1.0000
  N   N10       1.0  0.55431  0.44251  0.77921  1.0000
  N   N11       1.0  0.89365  0.45194  0.78938  1.0000
  N   N12       1.0  0.55545  0.10761  0.72517  1.0000
  C   C37       1.0  0.42906  0.51603  0.80080  1.0000
  C   C38       1.0  0.49389  0.91558  0.79906  1.0000
  C   C39       1.0  0.08507  0.57591  0.73135  1.0000
  C   C40       1.0  0.51475  0.42497  0.78847  1.0000
  C   C41       1.0  0.91720  0.49364  0.80023  1.0000
  C   C42       1.0  0.57798  0.08878  0.75674  1.0000
  C   C43       1.0  0.45139  0.49371  0.79726  1.0000
  C   C44       1.0  0.51459  0.95940  0.78916  1.0000
  C   C45       1.0  0.04294  0.55455  0.75047  1.0000
  C   C46       1.0  0.49412  0.44891  0.79360  1.0000
  C   C47       1.0  0.96033  0.51417  0.78766  1.0000
  C   C48       1.0  0.55591  0.04483  0.76575  1.0000
  C   C49       1.0  0.43001  0.45002  0.80441  1.0000
  C   C50       1.0  0.56149  0.98381  0.80905  1.0000
  C   C51       1.0  0.02467  0.57910  0.77923  1.0000
  C   C52       1.0  0.45063  0.42794  0.80061  1.0000
  C   C53       1.0  0.98433  0.55940  0.79748  1.0000
  C   C54       1.0  0.58175  0.02560  0.79830  1.0000
  H   H25       1.0  0.39750  0.43485  0.81498  1.0000
  H   H26       1.0  0.58077  0.96863  0.83206  1.0000
  H   H27       1.0  0.04298  0.61348  0.78404  1.0000
  H   H28       1.0  0.43452  0.39446  0.80550  1.0000
  H   H29       1.0  0.97025  0.57800  0.82085  1.0000
  H   H30       1.0  0.61739  0.04438  0.81146  1.0000
  C   C55       1.0  0.51641  0.49270  0.78825  1.0000
  C   C56       1.0  0.50883  0.02099  0.74338  1.0000
  C   C57       1.0  0.97813  0.48906  0.76084  1.0000
  C   C58       1.0  0.49433  0.51506  0.78703  1.0000
  C   C59       1.0  0.02004  0.50954  0.74250  1.0000
  C   C60       1.0  0.48814  0.97792  0.75695  1.0000
  O   O7        1.0  0.55739  0.51366  0.78191  1.0000
  O   O8        1.0  0.48328  0.03779  0.71235  1.0000
  O   O9        1.0  0.95683  0.44649  0.75185  1.0000
  O   O10       1.0  0.51506  0.55580  0.77655  1.0000
  O   O11       1.0  0.03640  0.48544  0.71766  1.0000
  O   O12       1.0  0.44395  0.95618  0.73800  1.0000
  C   C61       1.0  0.63911  0.28446  0.70494  1.0000
  C   C62       1.0  0.70695  0.35365  0.72469  1.0000
  C   C63       1.0  0.63949  0.35148  0.72352  1.0000
  C   C64       1.0  0.28536  0.64252  0.73139  1.0000
  C   C65       1.0  0.35296  0.70859  0.73506  1.0000
  C   C66       1.0  0.35229  0.64205  0.74335  1.0000
  C   C67       1.0  0.68379  0.30871  0.71128  1.0000
  C   C68       1.0  0.68459  0.37470  0.73331  1.0000
  C   C69       1.0  0.61686  0.30609  0.70528  1.0000
  C   C70       1.0  0.30836  0.68609  0.72940  1.0000
  C   C71       1.0  0.37385  0.68549  0.73888  1.0000
  C   C72       1.0  0.30824  0.62127  0.74217  1.0000
  H   H31       1.0  0.58137  0.28747  0.69278  1.0000
  H   H32       1.0  0.70129  0.29254  0.70663  1.0000
  H   H33       1.0  0.70353  0.41033  0.75489  1.0000
  H   H34       1.0  0.29228  0.58894  0.75713  1.0000
  H   H35       1.0  0.29008  0.70203  0.71749  1.0000
  H   H36       1.0  0.40746  0.70147  0.73655  1.0000
  H   H37       1.0  0.56588  0.49120  0.77868  1.0000
  H   H38       1.0  0.50462  0.06841  0.70672  1.0000
  H   H39       1.0  0.92816  0.43894  0.76990  1.0000
  H   H40       1.0  0.49343  0.56533  0.77686  1.0000
  H   H41       1.0  0.06554  0.50615  0.70329  1.0000
  H   H42       1.0  0.43640  0.92656  0.75305  1.0000
  H   H43       1.0  0.39805  0.49927  0.82260  1.0000
  H   H44       1.0  0.51620  0.90320  0.82425  1.0000
  H   H45       1.0  0.10073  0.61061  0.73747  1.0000
  H   H46       1.0  0.49508  0.39086  0.78874  1.0000
  H   H47       1.0  0.90487  0.51454  0.81862  1.0000
  H   H48       1.0  0.61495  0.10602  0.78013  1.0000
  C  Sn1       1.0  0.55292  0.36482  0.26094  1.0000
  C   C73       1.0  0.57249  0.41084  0.30917  1.0000
  C  Sn2       1.0  0.61591  0.44110  0.31565  1.0000
  C  Sn3       1.0  0.64027  0.42504  0.27291  1.0000
  C   C74       1.0  0.62070  0.37905  0.22468  1.0000
  C  Sn4       1.0  0.57728  0.34876  0.21820  1.0000
  O  Te1       1.0  0.50946  0.33518  0.25535  1.0000
  O  Te2       1.0  0.63478  0.48696  0.36430  1.0000
  O  Te3       1.0  0.68376  0.45473  0.27854  1.0000
  O  Te4       1.0  0.55841  0.30293  0.16955  1.0000
  Mg  Mg1       1.0  0.69497  0.51409  0.35240  1.0000
  Mg  Mg2       1.0  0.49821  0.27577  0.18131  1.0000
  C  Sn5       1.0  0.55142  0.17439  0.15284  1.0000
  C   C75       1.0  0.57089  0.15018  0.15821  1.0000
  C  Sn6       1.0  0.61970  0.17246  0.20927  1.0000
  C  Sn7       1.0  0.64970  0.21993  0.25608  1.0000
  C   C76       1.0  0.63023  0.24411  0.25074  1.0000
  C  Sn8       1.0  0.58141  0.22186  0.19965  1.0000
  O  Te5       1.0  0.50251  0.15142  0.10140  1.0000
  O  Te6       1.0  0.63834  0.14753  0.21355  1.0000
  O  Te7       1.0  0.69863  0.24289  0.30754  1.0000
  O  Te8       1.0  0.56277  0.24676  0.19539  1.0000
  Mg  Mg3       1.0  0.70719  0.19410  0.29256  1.0000
  Mg  Mg4       1.0  0.49394  0.20023  0.11650  1.0000
  C  Sn9       1.0  0.77418  0.41749  0.13030  1.0000
  C   C77       1.0  0.75430  0.38074  0.18152  1.0000
  C  Sn10      1.0  0.78426  0.37137  0.30047  1.0000
  C  Sn11      1.0  0.83516  0.39932  0.36977  1.0000
  C   C78       1.0  0.85502  0.43604  0.31858  1.0000
  C  Sn12      1.0  0.82508  0.44544  0.19960  1.0000
  O  Te9       1.0  0.74355  0.42623  0.01124  1.0000
  O  Te10      1.0  0.76353  0.33443  0.34965  1.0000
  O  Te11      1.0  0.86579  0.39054  0.48892  1.0000
  O  Te12      1.0  0.84578  0.48236  0.15045  1.0000
  Mg  Mg5       1.0  0.82036  0.33634  0.51576  1.0000
  Mg  Mg6       1.0  0.92209  0.57585  0.98444  1.0000
  C  Sn13      1.0  0.36240  0.55141  0.25420  1.0000
  C   C79       1.0  0.39980  0.56029  0.22082  1.0000
  C  Sn14      1.0  0.42985  0.60216  0.21697  1.0000
  C  Sn15      1.0  0.42238  0.63587  0.24723  1.0000
  C   C80       1.0  0.38500  0.62699  0.28061  1.0000
  C  Sn16      1.0  0.35493  0.58513  0.28446  1.0000
  O  Te13      1.0  0.33281  0.50932  0.25743  1.0000
  O  Te14      1.0  0.46699  0.61023  0.18327  1.0000
  O  Te15      1.0  0.45201  0.67798  0.24396  1.0000
  O  Te16      1.0  0.31781  0.57704  0.31817  1.0000
  Mg  Mg7       1.0  0.49775  0.67287  0.19255  1.0000
  Mg  Mg8       1.0  0.28706  0.51444  0.30901  1.0000
  C  Sn17      1.0  0.17425  0.55528  0.17217  1.0000
  C   C81       1.0  0.15840  0.57678  0.24541  1.0000
  C  Sn18      1.0  0.18134  0.62332  0.29172  1.0000
  C  Sn19      1.0  0.22094  0.64890  0.26413  1.0000
  C   C82       1.0  0.23676  0.62741  0.19090  1.0000
  C  Sn20      1.0  0.21384  0.58087  0.14458  1.0000
  O  Te17      1.0  0.15077  0.50872  0.12685  1.0000
  O  Te18      1.0  0.16485  0.64405  0.36480  1.0000
  O  Te19      1.0  0.24441  0.69550  0.30953  1.0000
  O  Te20      1.0  0.23031  0.56014  0.07152  1.0000
  Mg  Mg9       1.0  0.20864  0.70833  0.40490  1.0000
  Mg  Mg10      1.0  0.18654  0.49586  0.03128  1.0000
  C  Sn21      1.0  0.39745  0.82612  0.36036  1.0000
  C   C83       1.0  0.43417  0.84777  0.31788  1.0000
  C  Sn22      1.0  0.44256  0.82241  0.21733  1.0000
  C  Sn23      1.0  0.41363  0.77441  0.15788  1.0000
  C   C84       1.0  0.37693  0.75279  0.20033  1.0000
  C  Sn24      1.0  0.36851  0.77812  0.30092  1.0000
  O  Te21      1.0  0.38970  0.85215  0.46103  1.0000
  O  Te22      1.0  0.47950  0.84482  0.17659  1.0000
  O  Te23      1.0  0.42141  0.74839  0.05714  1.0000
  O  Te24      1.0  0.33160  0.75574  0.34163  1.0000
  Mg  Mg11      1.0  0.47603  0.79451  0.03576  1.0000
  Mg  Mg12      1.0  0.33502  0.80601  0.48235  1.0000
  C  Sn25      1.0  0.63901  0.42917  0.75745  1.0000
  C   C85       1.0  0.63012  0.39002  0.78816  1.0000
  C  Sn26      1.0  0.58914  0.36155  0.79976  1.0000
  C  Sn27      1.0  0.55634  0.37242  0.78014  1.0000
  C   C86       1.0  0.56523  0.41154  0.74941  1.0000
  C  Sn28      1.0  0.60621  0.44003  0.73783  1.0000
  O  Te25      1.0  0.68021  0.45714  0.74634  1.0000
  O  Te26      1.0  0.58104  0.32260  0.83061  1.0000
  O  Te27      1.0  0.51512  0.34441  0.79128  1.0000
  O  Te28      1.0  0.61431  0.47895  0.70697  1.0000
  Mg  Mg13      1.0  0.51981  0.29517  0.83489  1.0000
  Mg  Mg14      1.0  0.67551  0.50640  0.70256  1.0000
  C  Sn29      1.0  0.55020  0.17782  0.68528  1.0000
  C   C87       1.0  0.56365  0.14933  0.65897  1.0000
  C  Sn30      1.0  0.60847  0.16667  0.67165  1.0000
  C  Sn31      1.0  0.64054  0.21348  0.71158  1.0000
  C   C88       1.0  0.62709  0.24194  0.73790  1.0000
  C  Sn32      1.0  0.58226  0.22462  0.72521  1.0000
  O  Te29      1.0  0.50522  0.15975  0.67197  1.0000
  O  Te30      1.0  0.62111  0.13752  0.64473  1.0000
  O  Te31      1.0  0.68555  0.23153  0.72487  1.0000
  O  Te32      1.0  0.56963  0.25374  0.75214  1.0000
  Mg  Mg15      1.0  0.68636  0.17820  0.67710  1.0000
  Mg  Mg16      1.0  0.50440  0.21311  0.71990  1.0000
  C  Sn33      1.0  0.77369  0.41528  0.63355  1.0000
  C   C89       1.0  0.75390  0.37888  0.68666  1.0000
  C  Sn34      1.0  0.78384  0.36946  0.80545  1.0000
  C  Sn35      1.0  0.83462  0.39703  0.87265  1.0000
  C   C90       1.0  0.85439  0.43341  0.81957  1.0000
  C  Sn36      1.0  0.82448  0.44285  0.70075  1.0000
  O  Te33      1.0  0.74308  0.42407  0.51468  1.0000
  O  Te34      1.0  0.76320  0.33287  0.85655  1.0000
  O  Te35      1.0  0.86523  0.38821  0.99160  1.0000
  O  Te36      1.0  0.84509  0.47942  0.64968  1.0000
  Mg  Mg17      1.0  0.68686  0.23921  0.02154  1.0000
  Mg  Mg18      1.0  0.78838  0.47777  0.48479  1.0000
  C  Sn37      1.0  0.35476  0.56675  0.75909  1.0000
  C   C91       1.0  0.37543  0.61261  0.79425  1.0000
  C  Sn38      1.0  0.41977  0.64067  0.80331  1.0000
  C  Sn39      1.0  0.44395  0.62251  0.77656  1.0000
  C   C92       1.0  0.42328  0.57667  0.74139  1.0000
  C  Sn40      1.0  0.37894  0.54859  0.73234  1.0000
  O  Te37      1.0  0.31039  0.53933  0.75063  1.0000
  O  Te38      1.0  0.43973  0.68641  0.83871  1.0000
  O  Te39      1.0  0.48835  0.64997  0.78505  1.0000
  O  Te40      1.0  0.35898  0.50287  0.69693  1.0000
  Mg  Mg19      1.0  0.50088  0.71009  0.83691  1.0000
  Mg  Mg20      1.0  0.29782  0.47915  0.69860  1.0000
  C  Sn41      1.0  0.18579  0.63329  0.74595  1.0000
  C   C93       1.0  0.14819  0.58682  0.67375  1.0000
  C  Sn42      1.0  0.15626  0.55460  0.63338  1.0000
  C  Sn43      1.0  0.20290  0.56911  0.66597  1.0000
  C   C94       1.0  0.24047  0.61556  0.73816  1.0000
  C  Sn44      1.0  0.23243  0.64781  0.77854  1.0000
  O  Te41      1.0  0.17691  0.66492  0.78529  1.0000
  O  Te42      1.0  0.11810  0.50833  0.56122  1.0000
  O  Te43      1.0  0.21176  0.53744  0.62656  1.0000
  O  Te44      1.0  0.27056  0.69405  0.85069  1.0000
  Mg  Mg21      1.0  0.14818  0.47827  0.53011  1.0000
  Mg  Mg22      1.0  0.24053  0.72414  0.88194  1.0000
  C  Sn45      1.0  0.35711  0.78797  0.73010  1.0000
  C   C95       1.0  0.36658  0.75664  0.69357  1.0000
  C  Sn46      1.0  0.41074  0.77104  0.70527  1.0000
  C  Sn47      1.0  0.44620  0.81773  0.75463  1.0000
  C   C96       1.0  0.43673  0.84903  0.79116  1.0000
  C  Sn48      1.0  0.39257  0.83466  0.77946  1.0000
  O  Te45      1.0  0.31272  0.77282  0.71759  1.0000
  O  Te46      1.0  0.41937  0.73909  0.66805  1.0000
  O  Te47      1.0  0.49062  0.83287  0.76712  1.0000
  O  Te48      1.0  0.38394  0.86659  0.81668  1.0000
  Mg  Mg23      1.0  0.48539  0.77637  0.70354  1.0000
  Mg  Mg24      1.0  0.31795  0.82935  0.78133  1.0000
