data_image0
_chemical_formula_structural       N6C18H6C6O6C6H6C6H6C18H18N6C18H6C6O6C6H6C6H6C18H18SnCSn2CSnTe4Mg2SnCSn2CSnTe4Mg2SnCSn2CSnTe4Mg2SnCSn2CSnTe4Mg2SnCSn2CSnTe4Mg2SnCSn2CSnTe4Mg2
_chemical_formula_sum              "N12 C120 H72 O12 Sn24 Te24 Mg12"
_cell_length_a       36.9462
_cell_length_b       37.0045
_cell_length_c       8.25056
_cell_angle_alpha    97.4314
_cell_angle_beta     112.453
_cell_angle_gamma    120.037

_symmetry_space_group_name_H-M    'P1'
_space_group_IT_number       1

loop_
  _space_group_symop_operation_xyz
  'x, y, z'

loop_
  _atom_site_type_symbol
  _atom_site_label
  _atom_site_symmetry_multiplicity
  _atom_site_fract_x
  _atom_site_fract_y
  _atom_site_fract_z
  _atom_site_occupancy
  N   N1        1.0  0.43932  0.54938  0.27162  1.0000
  N   N2        1.0  0.45647  0.89276  0.27915  1.0000
  N   N3        1.0  0.10569  0.55890  0.21158  1.0000
  N   N4        1.0  0.55252  0.44118  0.27607  1.0000
  N   N5        1.0  0.89440  0.45468  0.28787  1.0000
  N   N6        1.0  0.56032  0.10786  0.21875  1.0000
  C   C1        1.0  0.42295  0.51030  0.28768  1.0000
  C   C2        1.0  0.49913  0.91603  0.29360  1.0000
  C   C3        1.0  0.08718  0.57976  0.23732  1.0000
  C   C4        1.0  0.51481  0.42435  0.29802  1.0000
  C   C5        1.0  0.91803  0.49642  0.29915  1.0000
  C   C6        1.0  0.58210  0.08827  0.24278  1.0000
  C   C7        1.0  0.44715  0.48949  0.29244  1.0000
  C   C8        1.0  0.52012  0.96007  0.28557  1.0000
  C   C9        1.0  0.04465  0.55804  0.25417  1.0000
  C   C10       1.0  0.49246  0.44683  0.29687  1.0000
  C   C11       1.0  0.96122  0.51700  0.28671  1.0000
  C   C12       1.0  0.56080  0.04507  0.25824  1.0000
  C   C13       1.0  0.42707  0.44619  0.30347  1.0000
  C   C14       1.0  0.56620  0.98378  0.29829  1.0000
  C   C15       1.0  0.02618  0.58241  0.28255  1.0000
  C   C16       1.0  0.44931  0.42546  0.30657  1.0000
  C   C17       1.0  0.98537  0.56234  0.29777  1.0000
  C   C18       1.0  0.58609  0.02532  0.28511  1.0000
  H   H1        1.0  0.39440  0.43044  0.31300  1.0000
  H   H2        1.0  0.58499  0.96816  0.31645  1.0000
  H   H3        1.0  0.04474  0.61699  0.28965  1.0000
  H   H4        1.0  0.43441  0.39258  0.31684  1.0000
  H   H5        1.0  0.97099  0.58074  0.31954  1.0000
  H   H6        1.0  0.62090  0.04344  0.29141  1.0000
  C   C19       1.0  0.51306  0.48996  0.28494  1.0000
  C   C20       1.0  0.51503  0.02239  0.24745  1.0000
  C   C21       1.0  0.97915  0.49201  0.25979  1.0000
  C   C22       1.0  0.49038  0.51172  0.28427  1.0000
  C   C23       1.0  0.02132  0.51274  0.24313  1.0000
  C   C24       1.0  0.49445  0.97935  0.26110  1.0000
  O   O1        1.0  0.55342  0.51122  0.27443  1.0000
  O   O2        1.0  0.49045  0.04009  0.22539  1.0000
  O   O3        1.0  0.95764  0.44926  0.24910  1.0000
  O   O4        1.0  0.51026  0.55225  0.27203  1.0000
  O   O5        1.0  0.03766  0.48867  0.21749  1.0000
  O   O6        1.0  0.45111  0.95835  0.24915  1.0000
  C   C25       1.0  0.81693  0.44419  0.20536  1.0000
  C   C26       1.0  0.37907  0.55681  0.30776  1.0000
  C   C27       1.0  0.44564  0.81956  0.22076  1.0000
  C   C28       1.0  0.77108  0.41873  0.18528  1.0000
  C   C29       1.0  0.35917  0.58038  0.30012  1.0000
  C   C30       1.0  0.41982  0.77509  0.20747  1.0000
  H   H7        1.0  0.82668  0.47163  0.15573  1.0000
  H   H8        1.0  0.36624  0.52854  0.35144  1.0000
  H   H9        1.0  0.47323  0.83118  0.18115  1.0000
  H   H10       1.0  0.74635  0.42751  0.12443  1.0000
  H   H11       1.0  0.33158  0.56964  0.33904  1.0000
  H   H12       1.0  0.42821  0.75311  0.15893  1.0000
  C   C31       1.0  0.83350  0.39458  0.32427  1.0000
  C   C32       1.0  0.39462  0.83040  0.30267  1.0000
  C   C33       1.0  0.43326  0.60888  0.22145  1.0000
  C   C34       1.0  0.78761  0.36944  0.30439  1.0000
  C   C35       1.0  0.36949  0.78606  0.29181  1.0000
  C   C36       1.0  0.41284  0.63208  0.21250  1.0000
  H   H13       1.0  0.85861  0.38600  0.38162  1.0000
  H   H14       1.0  0.38536  0.85246  0.34185  1.0000
  H   H15       1.0  0.46203  0.61952  0.18918  1.0000
  H   H16       1.0  0.77762  0.34155  0.35134  1.0000
  H   H17       1.0  0.34114  0.77434  0.32720  1.0000
  H   H18       1.0  0.42591  0.66053  0.17006  1.0000
  C   C37       1.0  0.64245  0.28653  0.21818  1.0000
  C   C38       1.0  0.70713  0.35482  0.21922  1.0000
  C   C39       1.0  0.64165  0.35296  0.23823  1.0000
  C   C40       1.0  0.28610  0.64446  0.22404  1.0000
  C   C41       1.0  0.35625  0.71069  0.24098  1.0000
  C   C42       1.0  0.35295  0.64275  0.24231  1.0000
  C   C43       1.0  0.84911  0.43255  0.27586  1.0000
  C   C44       1.0  0.43378  0.84831  0.27073  1.0000
  C   C45       1.0  0.41660  0.57059  0.26755  1.0000
  C   C46       1.0  0.75505  0.38064  0.23298  1.0000
  C   C47       1.0  0.38163  0.75725  0.24554  1.0000
  C   C48       1.0  0.37511  0.61846  0.25133  1.0000
  C   C49       1.0  0.68470  0.31000  0.20702  1.0000
  C   C50       1.0  0.68418  0.37524  0.22856  1.0000
  C   C51       1.0  0.62187  0.30897  0.23627  1.0000
  C   C52       1.0  0.31099  0.68871  0.22987  1.0000
  C   C53       1.0  0.37713  0.68742  0.25119  1.0000
  C   C54       1.0  0.30716  0.62169  0.22655  1.0000
  H   H19       1.0  0.59097  0.29279  0.25669  1.0000
  H   H20       1.0  0.70070  0.29322  0.18728  1.0000
  H   H21       1.0  0.70009  0.40926  0.23016  1.0000
  H   H22       1.0  0.28782  0.58722  0.21986  1.0000
  H   H23       1.0  0.29381  0.70572  0.21957  1.0000
  H   H24       1.0  0.41319  0.70460  0.26894  1.0000
  H   H25       1.0  0.56249  0.48930  0.27072  1.0000
  H   H26       1.0  0.51134  0.07031  0.21601  1.0000
  H   H27       1.0  0.92890  0.44161  0.26657  1.0000
  H   H28       1.0  0.48780  0.56098  0.27070  1.0000
  H   H29       1.0  0.06705  0.50957  0.20502  1.0000
  H   H30       1.0  0.44323  0.92835  0.26108  1.0000
  H   H31       1.0  0.38997  0.49153  0.29640  1.0000
  H   H32       1.0  0.52053  0.90276  0.31184  1.0000
  H   H33       1.0  0.10309  0.61462  0.24531  1.0000
  H   H34       1.0  0.49921  0.39262  0.32038  1.0000
  H   H35       1.0  0.90574  0.51733  0.31820  1.0000
  H   H36       1.0  0.61768  0.10397  0.25394  1.0000
  N   N7        1.0  0.44518  0.55481  0.78190  1.0000
  N   N8        1.0  0.45056  0.89143  0.77865  1.0000
  N   N9        1.0  0.10359  0.55496  0.70666  1.0000
  N   N10       1.0  0.55431  0.44251  0.77921  1.0000
  N   N11       1.0  0.89365  0.45194  0.78938  1.0000
  N   N12       1.0  0.55545  0.10761  0.72517  1.0000
  C   C55       1.0  0.42906  0.51603  0.80080  1.0000
  C   C56       1.0  0.49389  0.91558  0.79906  1.0000
  C   C57       1.0  0.08507  0.57591  0.73135  1.0000
  C   C58       1.0  0.51475  0.42497  0.78847  1.0000
  C   C59       1.0  0.91720  0.49364  0.80023  1.0000
  C   C60       1.0  0.57798  0.08878  0.75674  1.0000
  C   C61       1.0  0.45139  0.49371  0.79726  1.0000
  C   C62       1.0  0.51459  0.95940  0.78916  1.0000
  C   C63       1.0  0.04294  0.55455  0.75047  1.0000
  C   C64       1.0  0.49412  0.44891  0.79360  1.0000
  C   C65       1.0  0.96033  0.51417  0.78766  1.0000
  C   C66       1.0  0.55591  0.04483  0.76575  1.0000
  C   C67       1.0  0.43001  0.45002  0.80441  1.0000
  C   C68       1.0  0.56149  0.98381  0.80905  1.0000
  C   C69       1.0  0.02467  0.57910  0.77923  1.0000
  C   C70       1.0  0.45063  0.42794  0.80061  1.0000
  C   C71       1.0  0.98433  0.55940  0.79748  1.0000
  C   C72       1.0  0.58175  0.02560  0.79830  1.0000
  H   H37       1.0  0.39750  0.43485  0.81498  1.0000
  H   H38       1.0  0.58077  0.96863  0.83206  1.0000
  H   H39       1.0  0.04298  0.61348  0.78404  1.0000
  H   H40       1.0  0.43452  0.39446  0.80550  1.0000
  H   H41       1.0  0.97025  0.57800  0.82085  1.0000
  H   H42       1.0  0.61739  0.04438  0.81146  1.0000
  C   C73       1.0  0.51641  0.49270  0.78825  1.0000
  C   C74       1.0  0.50883  0.02099  0.74338  1.0000
  C   C75       1.0  0.97813  0.48906  0.76084  1.0000
  C   C76       1.0  0.49433  0.51506  0.78703  1.0000
  C   C77       1.0  0.02004  0.50954  0.74250  1.0000
  C   C78       1.0  0.48814  0.97792  0.75695  1.0000
  O   O7        1.0  0.55739  0.51366  0.78191  1.0000
  O   O8        1.0  0.48328  0.03779  0.71235  1.0000
  O   O9        1.0  0.95683  0.44649  0.75185  1.0000
  O   O10       1.0  0.51506  0.55580  0.77655  1.0000
  O   O11       1.0  0.03640  0.48544  0.71766  1.0000
  O   O12       1.0  0.44395  0.95618  0.73800  1.0000
  C   C79       1.0  0.56195  0.38041  0.81424  1.0000
  C   C80       1.0  0.18186  0.62545  0.78970  1.0000
  C   C81       1.0  0.44225  0.81948  0.72519  1.0000
  C   C82       1.0  0.58307  0.35893  0.79852  1.0000
  C   C83       1.0  0.22591  0.64588  0.79527  1.0000
  C   C84       1.0  0.41704  0.77478  0.70954  1.0000
  H   H43       1.0  0.53710  0.36788  0.86701  1.0000
  H   H44       1.0  0.17530  0.64660  0.85936  1.0000
  H   H45       1.0  0.47088  0.83222  0.69103  1.0000
  H   H46       1.0  0.57405  0.33021  0.83980  1.0000
  H   H47       1.0  0.25263  0.68274  0.86603  1.0000
  H   H48       1.0  0.42721  0.75412  0.66492  1.0000
  C   C85       1.0  0.60972  0.43610  0.71868  1.0000
  C   C86       1.0  0.15892  0.55137  0.63127  1.0000
  C   C87       1.0  0.38818  0.82747  0.79466  1.0000
  C   C88       1.0  0.63056  0.41429  0.70266  1.0000
  C   C89       1.0  0.20332  0.57217  0.63827  1.0000
  C   C90       1.0  0.36360  0.78285  0.78131  1.0000
  H   H49       1.0  0.61945  0.46597  0.68530  1.0000
  H   H50       1.0  0.13211  0.51446  0.56541  1.0000
  H   H51       1.0  0.37729  0.84841  0.82908  1.0000
  H   H52       1.0  0.65650  0.42763  0.65522  1.0000
  H   H53       1.0  0.21085  0.55113  0.57442  1.0000
  H   H54       1.0  0.33417  0.77002  0.81083  1.0000
  C   C91       1.0  0.63911  0.28446  0.70494  1.0000
  C   C92       1.0  0.70695  0.35365  0.72469  1.0000
  C   C93       1.0  0.63949  0.35148  0.72352  1.0000
  C   C94       1.0  0.28536  0.64252  0.73139  1.0000
  C   C95       1.0  0.35296  0.70859  0.73506  1.0000
  C   C96       1.0  0.35229  0.64205  0.74335  1.0000
  C   C97       1.0  0.57437  0.41915  0.77153  1.0000
  C   C98       1.0  0.14741  0.57766  0.70697  1.0000
  C   C99       1.0  0.42857  0.84697  0.77015  1.0000
  C   C100      1.0  0.61740  0.37479  0.73984  1.0000
  C   C101      1.0  0.23797  0.61990  0.72128  1.0000
  C   C102      1.0  0.37748  0.75526  0.73971  1.0000
  C   C103      1.0  0.68379  0.30871  0.71128  1.0000
  C   C104      1.0  0.68459  0.37470  0.73331  1.0000
  C   C105      1.0  0.61686  0.30609  0.70528  1.0000
  C   C106      1.0  0.30836  0.68609  0.72940  1.0000
  C   C107      1.0  0.37385  0.68549  0.73888  1.0000
  C   C108      1.0  0.30824  0.62127  0.74217  1.0000
  H   H55       1.0  0.58137  0.28747  0.69278  1.0000
  H   H56       1.0  0.70129  0.29254  0.70663  1.0000
  H   H57       1.0  0.70353  0.41033  0.75489  1.0000
  H   H58       1.0  0.29228  0.58894  0.75713  1.0000
  H   H59       1.0  0.29008  0.70203  0.71749  1.0000
  H   H60       1.0  0.40746  0.70147  0.73655  1.0000
  H   H61       1.0  0.56588  0.49120  0.77868  1.0000
  H   H62       1.0  0.50462  0.06841  0.70672  1.0000
  H   H63       1.0  0.92816  0.43894  0.76990  1.0000
  H   H64       1.0  0.49343  0.56533  0.77686  1.0000
  H   H65       1.0  0.06554  0.50615  0.70329  1.0000
  H   H66       1.0  0.43640  0.92656  0.75305  1.0000
  H   H67       1.0  0.39805  0.49927  0.82260  1.0000
  H   H68       1.0  0.51620  0.90320  0.82425  1.0000
  H   H69       1.0  0.10073  0.61061  0.73747  1.0000
  H   H70       1.0  0.49508  0.39086  0.78874  1.0000
  H   H71       1.0  0.90487  0.51454  0.81862  1.0000
  H   H72       1.0  0.61495  0.10602  0.78013  1.0000
  C  Sn1       1.0  0.62516  0.44054  0.26036  1.0000
  C   C109      1.0  0.57721  0.42011  0.21845  1.0000
  C  Sn2       1.0  0.54912  0.37602  0.20858  1.0000
  C  Sn3       1.0  0.56939  0.35185  0.24139  1.0000
  C   C110      1.0  0.61731  0.37228  0.28330  1.0000
  C  Sn4       1.0  0.64542  0.41637  0.29317  1.0000
  O  Te1       1.0  0.65258  0.48464  0.26951  1.0000
  O  Te2       1.0  0.50127  0.35631  0.16638  1.0000
  O  Te3       1.0  0.54192  0.30771  0.23220  1.0000
  O  Te4       1.0  0.69325  0.43608  0.33537  1.0000
  Mg  Mg1       1.0  0.47849  0.29545  0.16997  1.0000
  Mg  Mg2       1.0  0.71607  0.49694  0.33191  1.0000
  C  Sn5       1.0  0.17425  0.55528  0.17217  1.0000
  C   C111      1.0  0.15840  0.57678  0.24541  1.0000
  C  Sn6       1.0  0.18134  0.62332  0.29172  1.0000
  C  Sn7       1.0  0.22094  0.64890  0.26413  1.0000
  C   C112      1.0  0.23676  0.62741  0.19090  1.0000
  C  Sn8       1.0  0.21384  0.58087  0.14458  1.0000
  O  Te5       1.0  0.15077  0.50872  0.12685  1.0000
  O  Te6       1.0  0.16485  0.64405  0.36480  1.0000
  O  Te7       1.0  0.24441  0.69550  0.30953  1.0000
  O  Te8       1.0  0.23031  0.56014  0.07152  1.0000
  Mg  Mg3       1.0  0.20864  0.70833  0.40490  1.0000
  Mg  Mg4       1.0  0.18654  0.49586  0.03128  1.0000
  C  Sn9       1.0  0.44956  0.63121  0.87275  1.0000
  C   C113      1.0  0.42804  0.58483  0.82512  1.0000
  C  Sn10      1.0  0.37713  0.55274  0.72002  1.0000
  C  Sn11      1.0  0.34711  0.56730  0.66119  1.0000
  C   C114      1.0  0.36863  0.61366  0.70879  1.0000
  C  Sn12      1.0  0.41953  0.64578  0.81392  1.0000
  O  Te9       1.0  0.50053  0.66269  0.97791  1.0000
  O  Te10      1.0  0.35646  0.50656  0.67417  1.0000
  O  Te11      1.0  0.29610  0.53577  0.55596  1.0000
  O  Te12      1.0  0.44020  0.69193  0.85973  1.0000
  Mg  Mg5       1.0  0.28523  0.47668  0.52846  1.0000
  Mg  Mg6       1.0  0.37833  0.62648  0.00534  1.0000
  C  Sn13      1.0  0.58128  0.21360  0.79711  1.0000
  C   C115      1.0  0.61908  0.23872  0.76360  1.0000
  C  Sn14      1.0  0.63385  0.21746  0.68136  1.0000
  C  Sn15      1.0  0.61033  0.17010  0.63145  1.0000
  C   C116      1.0  0.57254  0.14500  0.66493  1.0000
  C  Sn16      1.0  0.55775  0.16623  0.74720  1.0000
  O  Te13      1.0  0.56711  0.23555  0.87947  1.0000
  O  Te14      1.0  0.67175  0.24329  0.64930  1.0000
  O  Te15      1.0  0.62453  0.14815  0.54904  1.0000
  O  Te16      1.0  0.51988  0.14043  0.77923  1.0000
  Mg  Mg7       1.0  0.67794  0.19792  0.53353  1.0000
  Mg  Mg8       1.0  0.51364  0.18575  0.89489  1.0000
  C  Sn17      1.0  0.77369  0.41528  0.63355  1.0000
  C   C117      1.0  0.75390  0.37888  0.68666  1.0000
  C  Sn18      1.0  0.78384  0.36946  0.80545  1.0000
  C  Sn19      1.0  0.83462  0.39703  0.87265  1.0000
  C   C118      1.0  0.85439  0.43341  0.81957  1.0000
  C  Sn20      1.0  0.82448  0.44285  0.70075  1.0000
  O  Te17      1.0  0.74308  0.42407  0.51468  1.0000
  O  Te18      1.0  0.76320  0.33287  0.85655  1.0000
  O  Te19      1.0  0.86523  0.38821  0.99160  1.0000
  O  Te20      1.0  0.84509  0.47942  0.64968  1.0000
  Mg  Mg9       1.0  0.68686  0.23921  0.02154  1.0000
  Mg  Mg10      1.0  0.78838  0.47777  0.48479  1.0000
  C  Sn21      1.0  0.57829  0.21049  0.27111  1.0000
  C   C119      1.0  0.62015  0.23951  0.26543  1.0000
  C  Sn22      1.0  0.64247  0.22281  0.21399  1.0000
  C  Sn23      1.0  0.62252  0.17613  0.16714  1.0000
  C   C120      1.0  0.58068  0.14714  0.17280  1.0000
  C  Sn24      1.0  0.55834  0.16381  0.22426  1.0000
  O  Te21      1.0  0.55658  0.22792  0.32292  1.0000
  O  Te22      1.0  0.68430  0.25249  0.20939  1.0000
  O  Te23      1.0  0.64426  0.15872  0.11531  1.0000
  O  Te24      1.0  0.51653  0.13417  0.22884  1.0000
  Mg  Mg11      1.0  0.70066  0.21259  0.12994  1.0000
  Mg  Mg12      1.0  0.50012  0.17402  0.30817  1.0000
