data_image0
_chemical_formula_structural       N6C18H6C6O6C12H18N6C18H6C6O6C12H18C2Sn2C2HTe2HMgC2Sn2C2HTe2HMgC2Sn2C2HTe2HMgC2Sn2C2HTe2HMgC2Sn2C2HTe2HMgC2Sn2C2HTe2HMgC2Sn2C2HTe2HMgC2Sn2C2HTe2HMgC2Sn2C2HTe2HMgC2Sn2C2HTe2HMgC2Sn2C2HTe2HMgC2Sn2C2HTe2HMg
_chemical_formula_sum              "N12 C120 H72 O12 Sn24 Te24 Mg12"
_cell_length_a       36.9462
_cell_length_b       37.0045
_cell_length_c       8.25056
_cell_angle_alpha    97.4314
_cell_angle_beta     112.453
_cell_angle_gamma    120.037

_symmetry_space_group_name_H-M    'P1'
_space_group_IT_number       1

loop_
  _space_group_symop_operation_xyz
  'x, y, z'

loop_
  _atom_site_type_symbol
  _atom_site_label
  _atom_site_symmetry_multiplicity
  _atom_site_fract_x
  _atom_site_fract_y
  _atom_site_fract_z
  _atom_site_occupancy
  N   N1        1.0  0.43932  0.54938  0.27162  1.0000
  N   N2        1.0  0.45647  0.89276  0.27915  1.0000
  N   N3        1.0  0.10569  0.55890  0.21158  1.0000
  N   N4        1.0  0.55252  0.44118  0.27607  1.0000
  N   N5        1.0  0.89440  0.45468  0.28787  1.0000
  N   N6        1.0  0.56032  0.10786  0.21875  1.0000
  C   C1        1.0  0.42295  0.51030  0.28768  1.0000
  C   C2        1.0  0.49913  0.91603  0.29360  1.0000
  C   C3        1.0  0.08718  0.57976  0.23732  1.0000
  C   C4        1.0  0.51481  0.42435  0.29802  1.0000
  C   C5        1.0  0.91803  0.49642  0.29915  1.0000
  C   C6        1.0  0.58210  0.08827  0.24278  1.0000
  C   C7        1.0  0.44715  0.48949  0.29244  1.0000
  C   C8        1.0  0.52012  0.96007  0.28557  1.0000
  C   C9        1.0  0.04465  0.55804  0.25417  1.0000
  C   C10       1.0  0.49246  0.44683  0.29687  1.0000
  C   C11       1.0  0.96122  0.51700  0.28671  1.0000
  C   C12       1.0  0.56080  0.04507  0.25824  1.0000
  C   C13       1.0  0.42707  0.44619  0.30347  1.0000
  C   C14       1.0  0.56620  0.98378  0.29829  1.0000
  C   C15       1.0  0.02618  0.58241  0.28255  1.0000
  C   C16       1.0  0.44931  0.42546  0.30657  1.0000
  C   C17       1.0  0.98537  0.56234  0.29777  1.0000
  C   C18       1.0  0.58609  0.02532  0.28511  1.0000
  H   H1        1.0  0.39440  0.43044  0.31300  1.0000
  H   H2        1.0  0.58499  0.96816  0.31645  1.0000
  H   H3        1.0  0.04474  0.61699  0.28965  1.0000
  H   H4        1.0  0.43441  0.39258  0.31684  1.0000
  H   H5        1.0  0.97099  0.58074  0.31954  1.0000
  H   H6        1.0  0.62090  0.04344  0.29141  1.0000
  C   C19       1.0  0.51306  0.48996  0.28494  1.0000
  C   C20       1.0  0.51503  0.02239  0.24745  1.0000
  C   C21       1.0  0.97915  0.49201  0.25979  1.0000
  C   C22       1.0  0.49038  0.51172  0.28427  1.0000
  C   C23       1.0  0.02132  0.51274  0.24313  1.0000
  C   C24       1.0  0.49445  0.97935  0.26110  1.0000
  O   O1        1.0  0.55342  0.51122  0.27443  1.0000
  O   O2        1.0  0.49045  0.04009  0.22539  1.0000
  O   O3        1.0  0.95764  0.44926  0.24910  1.0000
  O   O4        1.0  0.51026  0.55225  0.27203  1.0000
  O   O5        1.0  0.03766  0.48867  0.21749  1.0000
  O   O6        1.0  0.45111  0.95835  0.24915  1.0000
  C   C25       1.0  0.64245  0.28653  0.21818  1.0000
  C   C26       1.0  0.70713  0.35482  0.21922  1.0000
  C   C27       1.0  0.64165  0.35296  0.23823  1.0000
  C   C28       1.0  0.28610  0.64446  0.22404  1.0000
  C   C29       1.0  0.35625  0.71069  0.24098  1.0000
  C   C30       1.0  0.35295  0.64275  0.24231  1.0000
  C   C31       1.0  0.68470  0.31000  0.20702  1.0000
  C   C32       1.0  0.68418  0.37524  0.22856  1.0000
  C   C33       1.0  0.62187  0.30897  0.23627  1.0000
  C   C34       1.0  0.31099  0.68871  0.22987  1.0000
  C   C35       1.0  0.37713  0.68742  0.25119  1.0000
  C   C36       1.0  0.30716  0.62169  0.22655  1.0000
  H   H7        1.0  0.59097  0.29279  0.25669  1.0000
  H   H8        1.0  0.70070  0.29322  0.18728  1.0000
  H   H9        1.0  0.70009  0.40926  0.23016  1.0000
  H   H10       1.0  0.28782  0.58722  0.21986  1.0000
  H   H11       1.0  0.29381  0.70572  0.21957  1.0000
  H   H12       1.0  0.41319  0.70460  0.26894  1.0000
  H   H13       1.0  0.56249  0.48930  0.27072  1.0000
  H   H14       1.0  0.51134  0.07031  0.21601  1.0000
  H   H15       1.0  0.92890  0.44161  0.26657  1.0000
  H   H16       1.0  0.48780  0.56098  0.27070  1.0000
  H   H17       1.0  0.06705  0.50957  0.20502  1.0000
  H   H18       1.0  0.44323  0.92835  0.26108  1.0000
  H   H19       1.0  0.38997  0.49153  0.29640  1.0000
  H   H20       1.0  0.52053  0.90276  0.31184  1.0000
  H   H21       1.0  0.10309  0.61462  0.24531  1.0000
  H   H22       1.0  0.49921  0.39262  0.32038  1.0000
  H   H23       1.0  0.90574  0.51733  0.31820  1.0000
  H   H24       1.0  0.61768  0.10397  0.25394  1.0000
  N   N7        1.0  0.44518  0.55481  0.78190  1.0000
  N   N8        1.0  0.45056  0.89143  0.77865  1.0000
  N   N9        1.0  0.10359  0.55496  0.70666  1.0000
  N   N10       1.0  0.55431  0.44251  0.77921  1.0000
  N   N11       1.0  0.89365  0.45194  0.78938  1.0000
  N   N12       1.0  0.55545  0.10761  0.72517  1.0000
  C   C37       1.0  0.42906  0.51603  0.80080  1.0000
  C   C38       1.0  0.49389  0.91558  0.79906  1.0000
  C   C39       1.0  0.08507  0.57591  0.73135  1.0000
  C   C40       1.0  0.51475  0.42497  0.78847  1.0000
  C   C41       1.0  0.91720  0.49364  0.80023  1.0000
  C   C42       1.0  0.57798  0.08878  0.75674  1.0000
  C   C43       1.0  0.45139  0.49371  0.79726  1.0000
  C   C44       1.0  0.51459  0.95940  0.78916  1.0000
  C   C45       1.0  0.04294  0.55455  0.75047  1.0000
  C   C46       1.0  0.49412  0.44891  0.79360  1.0000
  C   C47       1.0  0.96033  0.51417  0.78766  1.0000
  C   C48       1.0  0.55591  0.04483  0.76575  1.0000
  C   C49       1.0  0.43001  0.45002  0.80441  1.0000
  C   C50       1.0  0.56149  0.98381  0.80905  1.0000
  C   C51       1.0  0.02467  0.57910  0.77923  1.0000
  C   C52       1.0  0.45063  0.42794  0.80061  1.0000
  C   C53       1.0  0.98433  0.55940  0.79748  1.0000
  C   C54       1.0  0.58175  0.02560  0.79830  1.0000
  H   H25       1.0  0.39750  0.43485  0.81498  1.0000
  H   H26       1.0  0.58077  0.96863  0.83206  1.0000
  H   H27       1.0  0.04298  0.61348  0.78404  1.0000
  H   H28       1.0  0.43452  0.39446  0.80550  1.0000
  H   H29       1.0  0.97025  0.57800  0.82085  1.0000
  H   H30       1.0  0.61739  0.04438  0.81146  1.0000
  C   C55       1.0  0.51641  0.49270  0.78825  1.0000
  C   C56       1.0  0.50883  0.02099  0.74338  1.0000
  C   C57       1.0  0.97813  0.48906  0.76084  1.0000
  C   C58       1.0  0.49433  0.51506  0.78703  1.0000
  C   C59       1.0  0.02004  0.50954  0.74250  1.0000
  C   C60       1.0  0.48814  0.97792  0.75695  1.0000
  O   O7        1.0  0.55739  0.51366  0.78191  1.0000
  O   O8        1.0  0.48328  0.03779  0.71235  1.0000
  O   O9        1.0  0.95683  0.44649  0.75185  1.0000
  O   O10       1.0  0.51506  0.55580  0.77655  1.0000
  O   O11       1.0  0.03640  0.48544  0.71766  1.0000
  O   O12       1.0  0.44395  0.95618  0.73800  1.0000
  C   C61       1.0  0.63911  0.28446  0.70494  1.0000
  C   C62       1.0  0.70695  0.35365  0.72469  1.0000
  C   C63       1.0  0.63949  0.35148  0.72352  1.0000
  C   C64       1.0  0.28536  0.64252  0.73139  1.0000
  C   C65       1.0  0.35296  0.70859  0.73506  1.0000
  C   C66       1.0  0.35229  0.64205  0.74335  1.0000
  C   C67       1.0  0.68379  0.30871  0.71128  1.0000
  C   C68       1.0  0.68459  0.37470  0.73331  1.0000
  C   C69       1.0  0.61686  0.30609  0.70528  1.0000
  C   C70       1.0  0.30836  0.68609  0.72940  1.0000
  C   C71       1.0  0.37385  0.68549  0.73888  1.0000
  C   C72       1.0  0.30824  0.62127  0.74217  1.0000
  H   H31       1.0  0.58137  0.28747  0.69278  1.0000
  H   H32       1.0  0.70129  0.29254  0.70663  1.0000
  H   H33       1.0  0.70353  0.41033  0.75489  1.0000
  H   H34       1.0  0.29228  0.58894  0.75713  1.0000
  H   H35       1.0  0.29008  0.70203  0.71749  1.0000
  H   H36       1.0  0.40746  0.70147  0.73655  1.0000
  H   H37       1.0  0.56588  0.49120  0.77868  1.0000
  H   H38       1.0  0.50462  0.06841  0.70672  1.0000
  H   H39       1.0  0.92816  0.43894  0.76990  1.0000
  H   H40       1.0  0.49343  0.56533  0.77686  1.0000
  H   H41       1.0  0.06554  0.50615  0.70329  1.0000
  H   H42       1.0  0.43640  0.92656  0.75305  1.0000
  H   H43       1.0  0.39805  0.49927  0.82260  1.0000
  H   H44       1.0  0.51620  0.90320  0.82425  1.0000
  H   H45       1.0  0.10073  0.61061  0.73747  1.0000
  H   H46       1.0  0.49508  0.39086  0.78874  1.0000
  H   H47       1.0  0.90487  0.51454  0.81862  1.0000
  H   H48       1.0  0.61495  0.10602  0.78013  1.0000
  C   C73       1.0  0.63306  0.44502  0.32465  1.0000
  C   C74       1.0  0.58401  0.42489  0.26474  1.0000
  C  Sn1       1.0  0.55097  0.37782  0.20357  1.0000
  C  Sn2       1.0  0.56747  0.35048  0.20258  1.0000
  C   C75       1.0  0.61663  0.37095  0.26292  1.0000
  C   C76       1.0  0.64937  0.41808  0.32378  1.0000
  H   H49       1.0  0.65841  0.48148  0.37184  1.0000
  O  Te1       1.0  0.50209  0.35826  0.14412  1.0000
  O  Te2       1.0  0.53524  0.30336  0.14222  1.0000
  H   H50       1.0  0.68735  0.43366  0.37028  1.0000
  Mg  Mg1       1.0  0.47214  0.29257  0.07442  1.0000
  C   C77       1.0  0.64635  0.21035  0.21914  1.0000
  C   C78       1.0  0.62691  0.23469  0.20796  1.0000
  C  Sn3       1.0  0.58320  0.21672  0.20597  1.0000
  C  Sn4       1.0  0.55859  0.17360  0.21540  1.0000
  C   C79       1.0  0.57835  0.14954  0.22668  1.0000
  C   C80       1.0  0.62210  0.16782  0.22852  1.0000
  H   H51       1.0  0.68021  0.22451  0.22067  1.0000
  O  Te3       1.0  0.56429  0.24148  0.19468  1.0000
  O  Te4       1.0  0.51486  0.15485  0.21372  1.0000
  H   H52       1.0  0.63715  0.14899  0.23730  1.0000
  Mg  Mg2       1.0  0.50364  0.20160  0.19671  1.0000
  C   C81       1.0  0.80455  0.44157  0.18635  1.0000
  C   C82       1.0  0.84302  0.43827  0.26806  1.0000
  C  Sn5       1.0  0.83700  0.40370  0.33265  1.0000
  C  Sn6       1.0  0.79157  0.37189  0.31486  1.0000
  C   C83       1.0  0.75330  0.37546  0.23278  1.0000
  C   C84       1.0  0.75973  0.41020  0.16868  1.0000
  H   H53       1.0  0.80951  0.46843  0.13666  1.0000
  O  Te5       1.0  0.87582  0.40090  0.41400  1.0000
  O  Te6       1.0  0.78455  0.33699  0.37816  1.0000
  H   H54       1.0  0.72992  0.41273  0.10530  1.0000
  Mg  Mg3       1.0  0.84843  0.34734  0.47907  1.0000
  C   C85       1.0  0.43186  0.61746  0.20660  1.0000
  C   C86       1.0  0.42412  0.58237  0.26948  1.0000
  C  Sn7       1.0  0.38852  0.56297  0.31892  1.0000
  C  Sn8       1.0  0.36019  0.57907  0.30494  1.0000
  C   C87       1.0  0.36819  0.61417  0.24174  1.0000
  C   C88       1.0  0.40392  0.63335  0.19270  1.0000
  H   H55       1.0  0.45949  0.63229  0.16855  1.0000
  O  Te7       1.0  0.38128  0.52795  0.38155  1.0000
  O  Te8       1.0  0.32436  0.56028  0.35336  1.0000
  H   H56       1.0  0.40989  0.66049  0.14390  1.0000
  Mg  Mg4       1.0  0.32812  0.51327  0.43118  1.0000
  C   C89       1.0  0.16695  0.55342  0.11038  1.0000
  C   C90       1.0  0.15249  0.57377  0.19953  1.0000
  C  Sn9       1.0  0.18188  0.62112  0.29406  1.0000
  C  Sn10      1.0  0.22654  0.64850  0.29915  1.0000
  C   C91       1.0  0.24065  0.62781  0.20941  1.0000
  C   C92       1.0  0.21098  0.58040  0.11527  1.0000
  H   H57       1.0  0.14398  0.51674  0.03745  1.0000
  O  Te9       1.0  0.16690  0.64090  0.38244  1.0000
  O  Te10      1.0  0.25659  0.69590  0.39256  1.0000
  H   H58       1.0  0.22217  0.56466  0.04616  1.0000
  Mg  Mg5       1.0  0.22040  0.70692  0.49178  1.0000
  C   C93       1.0  0.37210  0.79751  0.30587  1.0000
  C   C94       1.0  0.37569  0.76295  0.24615  1.0000
  C  Sn11      1.0  0.41086  0.77167  0.19841  1.0000
  C  Sn12      1.0  0.44299  0.81585  0.21087  1.0000
  C   C95       1.0  0.43913  0.85021  0.27090  1.0000
  C   C96       1.0  0.40379  0.84111  0.31828  1.0000
  H   H59       1.0  0.34478  0.79048  0.34263  1.0000
  O  Te11      1.0  0.41393  0.73674  0.13894  1.0000
  O  Te12      1.0  0.47849  0.82551  0.16408  1.0000
  H   H60       1.0  0.40105  0.86788  0.36463  1.0000
  Mg  Mg6       1.0  0.46833  0.76663  0.09053  1.0000
  C   C97       1.0  0.61917  0.43622  0.71138  1.0000
  C   C98       1.0  0.58250  0.42368  0.75411  1.0000
  C  Sn13      1.0  0.56434  0.38622  0.80282  1.0000
  C  Sn14      1.0  0.58331  0.36092  0.80877  1.0000
  C   C99       1.0  0.62002  0.37376  0.76590  1.0000
  C   C100      1.0  0.63792  0.41130  0.71729  1.0000
  H   H61       1.0  0.63305  0.46527  0.67386  1.0000
  O  Te13      1.0  0.52768  0.37415  0.84504  1.0000
  O  Te14      1.0  0.56583  0.32335  0.85708  1.0000
  H   H62       1.0  0.66634  0.42101  0.68432  1.0000
  Mg  Mg7       1.0  0.51571  0.32027  0.90292  1.0000
  C   C101      1.0  0.62377  0.17987  0.66989  1.0000
  C   C102      1.0  0.58910  0.15589  0.71954  1.0000
  C  Sn15      1.0  0.56557  0.17298  0.75661  1.0000
  C  Sn16      1.0  0.57704  0.21486  0.74357  1.0000
  C   C103      1.0  0.61175  0.23857  0.69367  1.0000
  C   C104      1.0  0.63508  0.22117  0.65693  1.0000
  H   H63       1.0  0.64180  0.16640  0.64136  1.0000
  O  Te15      1.0  0.53104  0.14859  0.80610  1.0000
  O  Te16      1.0  0.55406  0.23270  0.77980  1.0000
  H   H64       1.0  0.66190  0.23973  0.61837  1.0000
  Mg  Mg8       1.0  0.50958  0.18690  0.84215  1.0000
  C   C105      1.0  0.78031  0.42701  0.68701  1.0000
  C   C106      1.0  0.75768  0.38771  0.72045  1.0000
  C  Sn17      1.0  0.78279  0.36984  0.79370  1.0000
  C  Sn18      1.0  0.83145  0.39181  0.83413  1.0000
  C   C107      1.0  0.85378  0.43113  0.80031  1.0000
  C   C108      1.0  0.82831  0.44871  0.72693  1.0000
  H   H65       1.0  0.76062  0.44063  0.63033  1.0000
  O  Te17      1.0  0.75963  0.33054  0.82619  1.0000
  O  Te18      1.0  0.85740  0.37469  0.90749  1.0000
  H   H66       1.0  0.84585  0.47916  0.70117  1.0000
  Mg  Mg9       1.0  0.81011  0.32025  0.92749  1.0000
  C   C109      1.0  0.44822  0.63206  0.81677  1.0000
  C   C110      1.0  0.42891  0.58673  0.78906  1.0000
  C  Sn19      1.0  0.37982  0.55543  0.73136  1.0000
  C  Sn20      1.0  0.34960  0.56986  0.70091  1.0000
  C   C111      1.0  0.36926  0.61528  0.72889  1.0000
  C   C112      1.0  0.41843  0.64633  0.78670  1.0000
  H   H67       1.0  0.48625  0.65608  0.86140  1.0000
  O  Te19      1.0  0.36113  0.51027  0.70439  1.0000
  O  Te20      1.0  0.30042  0.53928  0.64314  1.0000
  H   H68       1.0  0.43336  0.68141  0.80803  1.0000
  Mg  Mg10      1.0  0.29185  0.48135  0.62523  1.0000
  C   C113      1.0  0.19438  0.63606  0.80824  1.0000
  C   C114      1.0  0.15420  0.59010  0.71978  1.0000
  C  Sn21      1.0  0.15641  0.55709  0.63074  1.0000
  C  Sn22      1.0  0.19970  0.57044  0.63053  1.0000
  C   C115      1.0  0.23971  0.61651  0.71954  1.0000
  C   C116      1.0  0.23710  0.64926  0.80817  1.0000
  H   H69       1.0  0.19238  0.66141  0.87691  1.0000
  O  Te21      1.0  0.11592  0.51131  0.54297  1.0000
  O  Te22      1.0  0.20289  0.53815  0.54265  1.0000
  H   H70       1.0  0.26823  0.68484  0.87676  1.0000
  Mg  Mg11      1.0  0.13803  0.47997  0.44205  1.0000
  C   C117      1.0  0.37761  0.81763  0.79386  1.0000
  C   C118      1.0  0.41869  0.84308  0.77853  1.0000
  C  Sn23      1.0  0.43884  0.82298  0.73217  1.0000
  C  Sn24      1.0  0.41737  0.77653  0.70061  1.0000
  C   C119      1.0  0.37626  0.75135  0.71615  1.0000
  C   C120      1.0  0.35640  0.77181  0.76267  1.0000
  H   H71       1.0  0.36222  0.83345  0.82975  1.0000
  O  Te23      1.0  0.47990  0.84890  0.71751  1.0000
  O  Te24      1.0  0.43675  0.75558  0.65402  1.0000
  H   H72       1.0  0.32458  0.75209  0.77441  1.0000
  Mg  Mg12      1.0  0.49299  0.80510  0.65069  1.0000
