data_image0
_chemical_formula_structural       OC3HCHC4OC3HCHC4HCOC3HCHC4OC3HCHC4OC3HCHC4HCOC3HCHC4HCOC3HCHC4OC3HCHC4OC3HCHC4HCOC3HCHC4OC3HCHC4OC3HCHC4B2CB3CBH13COC3HCHC4OC3HCHC4HCOC3HCHC4HCOC3HCHC4OC3HCHC4HCOC3HCHC4HCOC3HCHC4OC3HCHC4HCOC3HCHC4HCOC3HCHC4OC3HCHC4HCOC3HCHC5B2CBCB2CBH12SnCSn2CSnTe4Mg2SnCSn2CSnTe4Mg2SnCSn2CSnTe4Mg2
_chemical_formula_sum              "O24 C216 H84 B12 Sn12 Te12 Mg6"
_cell_length_a       43.8932
_cell_length_b       43.8482
_cell_length_c       8.12845
_cell_angle_alpha    106.189
_cell_angle_beta     106.028
_cell_angle_gamma    120.062

_symmetry_space_group_name_H-M    'P1'
_space_group_IT_number       1

loop_
  _space_group_symop_operation_xyz
  'x, y, z'

loop_
  _atom_site_type_symbol
  _atom_site_label
  _atom_site_symmetry_multiplicity
  _atom_site_fract_x
  _atom_site_fract_y
  _atom_site_fract_z
  _atom_site_occupancy
  O   O1        1.0  0.09933  0.57206  0.99928  1.0000
  C   C1        1.0  0.13365  0.57897  0.99842  1.0000
  C   C2        1.0  0.16423  0.61229  0.99601  1.0000
  C   C3        1.0  0.16317  0.64372  0.99138  1.0000
  H   H1        1.0  0.13761  0.64228  0.98951  1.0000
  C   C4        1.0  0.19402  0.67557  0.99081  1.0000
  H   H2        1.0  0.19336  0.69983  0.98738  1.0000
  C   C5        1.0  0.22721  0.67697  0.99314  1.0000
  C   C6        1.0  0.25907  0.70936  0.99250  1.0000
  C   C7        1.0  0.42304  0.61886  0.00698  1.0000
  C   C8        1.0  0.35690  0.58383  0.00767  1.0000
  O   O2        1.0  0.42982  0.52758  0.01352  1.0000
  C   C9        1.0  0.42315  0.55522  0.01125  1.0000
  C   C10       1.0  0.38992  0.55302  0.01126  1.0000
  C   C11       1.0  0.35835  0.52107  0.01556  1.0000
  H   H3        1.0  0.35979  0.49730  0.02084  1.0000
  C   C12       1.0  0.32673  0.52051  0.01644  1.0000
  H   H4        1.0  0.30282  0.49654  0.02443  1.0000
  C   C13       1.0  0.32555  0.55211  0.01216  1.0000
  C   C14       1.0  0.29332  0.55163  0.01600  1.0000
  C   C15       1.0  0.38450  0.80217  0.99700  1.0000
  C   C16       1.0  0.42011  0.77169  0.99086  1.0000
  H   H5        1.0  0.52882  0.96548  0.98611  1.0000
  C   C17       1.0  0.51510  0.98042  0.99024  1.0000
  O   O3        1.0  0.47551  0.90164  0.99973  1.0000
  C   C18       1.0  0.44813  0.86715  0.99989  1.0000
  C   C19       1.0  0.45072  0.83617  0.99676  1.0000
  C   C20       1.0  0.48299  0.83682  0.99158  1.0000
  H   H6        1.0  0.50660  0.86201  0.98803  1.0000
  C   C21       1.0  0.48393  0.80568  0.98712  1.0000
  H   H7        1.0  0.50834  0.80566  0.98071  1.0000
  C   C22       1.0  0.45237  0.77262  0.98803  1.0000
  C   C23       1.0  0.45388  0.74137  0.99068  1.0000
  C   C24       1.0  0.19890  0.58079  0.00733  1.0000
  C   C25       1.0  0.22825  0.64577  0.99728  1.0000
  O   O4        1.0  0.90061  0.42049  0.99205  1.0000
  C   C26       1.0  0.86668  0.41480  0.99299  1.0000
  C   C27       1.0  0.83519  0.38190  0.99397  1.0000
  C   C28       1.0  0.83483  0.34966  0.99681  1.0000
  H   H8        1.0  0.85993  0.35013  0.99861  1.0000
  C   C29       1.0  0.80312  0.31816  0.99527  1.0000
  H   H9        1.0  0.80266  0.29325  0.99728  1.0000
  C   C30       1.0  0.77050  0.31798  0.99257  1.0000
  C   C31       1.0  0.73796  0.28597  0.99176  1.0000
  C   C32       1.0  0.58426  0.38678  0.00272  1.0000
  C   C33       1.0  0.64972  0.42024  0.99536  1.0000
  O   O5        1.0  0.58041  0.48036  0.00789  1.0000
  C   C34       1.0  0.58604  0.45181  0.00465  1.0000
  C   C35       1.0  0.61863  0.45299  0.00118  1.0000
  C   C36       1.0  0.65076  0.48479  0.99855  1.0000
  H   H10       1.0  0.65015  0.50919  0.99684  1.0000
  C   C37       1.0  0.68178  0.48443  0.99467  1.0000
  H   H11       1.0  0.70621  0.50849  0.98945  1.0000
  C   C38       1.0  0.68147  0.45169  0.99150  1.0000
  C   C39       1.0  0.71266  0.45066  0.98254  1.0000
  C   C40       1.0  0.61304  0.19628  0.99650  1.0000
  C   C41       1.0  0.58010  0.22931  0.01064  1.0000
  H   H12       1.0  0.46553  0.03300  0.00189  1.0000
  C   C42       1.0  0.47921  0.01804  0.99789  1.0000
  O   O6        1.0  0.52092  0.09849  0.99860  1.0000
  C   C43       1.0  0.54876  0.13272  0.99776  1.0000
  C   C44       1.0  0.54756  0.16464  0.00412  1.0000
  C   C45       1.0  0.51635  0.16575  0.01293  1.0000
  H   H13       1.0  0.49232  0.14112  0.01746  1.0000
  C   C46       1.0  0.51688  0.19778  0.01934  1.0000
  H   H14       1.0  0.49325  0.19901  0.02862  1.0000
  C   C47       1.0  0.54892  0.23016  0.01724  1.0000
  C   C48       1.0  0.54915  0.26247  0.01679  1.0000
  C   C49       1.0  0.80283  0.41572  0.98557  1.0000
  C   C50       1.0  0.77091  0.35006  0.99059  1.0000
  H   H15       1.0  0.56207  0.03134  0.98899  1.0000
  C   C51       1.0  0.53382  0.01735  0.99280  1.0000
  O   O7        1.0  0.57287  0.09774  0.99198  1.0000
  C   C52       1.0  0.57942  0.13210  0.99275  1.0000
  C   C53       1.0  0.61244  0.16289  0.98992  1.0000
  C   C54       1.0  0.64367  0.16181  0.98237  1.0000
  H   H16       1.0  0.64212  0.13599  0.97699  1.0000
  C   C55       1.0  0.67537  0.19295  0.98260  1.0000
  H   H17       1.0  0.69948  0.19236  0.97612  1.0000
  C   C56       1.0  0.67688  0.22645  0.98942  1.0000
  C   C57       1.0  0.70943  0.25832  0.98970  1.0000
  C   C58       1.0  0.61770  0.41971  0.00033  1.0000
  C   C59       1.0  0.58217  0.35378  0.00358  1.0000
  O   O8        1.0  0.52727  0.42790  0.00755  1.0000
  C   C60       1.0  0.55463  0.42085  0.00528  1.0000
  C   C61       1.0  0.55200  0.38741  0.00576  1.0000
  C   C62       1.0  0.51979  0.35602  0.00985  1.0000
  H   H18       1.0  0.49615  0.35774  0.01451  1.0000
  C   C63       1.0  0.51873  0.32411  0.01086  1.0000
  H   H19       1.0  0.49449  0.30033  0.01830  1.0000
  C   C64       1.0  0.55024  0.32264  0.00804  1.0000
  C   C65       1.0  0.54959  0.29034  0.01225  1.0000
  C   C66       1.0  0.80260  0.38252  0.99072  1.0000
  C   C67       1.0  0.77137  0.41729  0.98081  1.0000
  O   O9        1.0  0.90177  0.47378  0.99203  1.0000
  C   C68       1.0  0.86719  0.44623  0.99129  1.0000
  C   C69       1.0  0.83585  0.44838  0.98615  1.0000
  C   C70       1.0  0.83569  0.48010  0.97781  1.0000
  H   H20       1.0  0.86058  0.50380  0.97310  1.0000
  C   C71       1.0  0.80412  0.48044  0.97111  1.0000
  H   H21       1.0  0.80364  0.50445  0.96143  1.0000
  C   C72       1.0  0.77140  0.44893  0.97399  1.0000
  C   C73       1.0  0.73970  0.44978  0.97523  1.0000
  C   C74       1.0  0.58062  0.19720  0.00443  1.0000
  C   C75       1.0  0.64582  0.22748  0.99604  1.0000
  H   H22       1.0  0.43205  0.96693  0.99736  1.0000
  C   C76       1.0  0.46042  0.98103  0.99471  1.0000
  O   O10       1.0  0.42174  0.89993  0.99512  1.0000
  C   C77       1.0  0.41642  0.86628  0.99870  1.0000
  C   C78       1.0  0.38354  0.83453  0.99824  1.0000
  C   C79       1.0  0.35086  0.83366  0.99686  1.0000
  H   H23       1.0  0.35100  0.85847  0.99576  1.0000
  C   C80       1.0  0.31941  0.80182  0.99444  1.0000
  H   H24       1.0  0.29413  0.80091  0.99302  1.0000
  C   C81       1.0  0.31962  0.76953  0.99517  1.0000
  C   C82       1.0  0.28741  0.73720  0.99452  1.0000
  C   C83       1.0  0.38975  0.58551  0.00784  1.0000
  C   C84       1.0  0.42425  0.65135  0.00464  1.0000
  O   O11       1.0  0.48220  0.58011  0.01038  1.0000
  C   C85       1.0  0.45416  0.58633  0.00945  1.0000
  C   C86       1.0  0.45606  0.61936  0.00775  1.0000
  C   C87       1.0  0.48839  0.65161  0.00810  1.0000
  H   H25       1.0  0.51270  0.65076  0.00731  1.0000
  C   C88       1.0  0.48876  0.68319  0.00726  1.0000
  H   H26       1.0  0.51322  0.70783  0.00485  1.0000
  C   C89       1.0  0.45621  0.68322  0.00398  1.0000
  C   C90       1.0  0.45551  0.71469  0.99764  1.0000
  C   C91       1.0  0.19752  0.61302  0.99983  1.0000
  C   C92       1.0  0.23130  0.58086  0.01418  1.0000
  O   O12       1.0  0.10039  0.51995  0.00086  1.0000
  C   C93       1.0  0.13450  0.54824  0.00067  1.0000
  C   C94       1.0  0.16659  0.54742  0.00660  1.0000
  C   C95       1.0  0.16817  0.51638  0.01492  1.0000
  H   H27       1.0  0.14370  0.49201  0.01873  1.0000
  C   C96       1.0  0.20043  0.51742  0.02145  1.0000
  H   H28       1.0  0.20193  0.49388  0.03023  1.0000
  C   C97       1.0  0.23263  0.54988  0.02026  1.0000
  C   C98       1.0  0.26525  0.55073  0.02031  1.0000
  C   C99       1.0  0.41806  0.80286  0.99459  1.0000
  C   C100      1.0  0.35202  0.77031  0.99630  1.0000
  B   B1        1.0  0.07898  0.53538  0.00235  1.0000
  B   B2        1.0  0.46669  0.54344  0.01308  1.0000
  C   C101      1.0  0.47819  0.96173  0.99192  1.0000
  B   B3        1.0  0.45862  0.92171  0.99558  1.0000
  B   B4        1.0  0.92238  0.45740  0.99225  1.0000
  B   B5        1.0  0.54369  0.46508  0.00954  1.0000
  C   C102      1.0  0.51619  0.03679  0.99707  1.0000
  B   B6        1.0  0.53640  0.07708  0.99606  1.0000
  H   H29       1.0  0.40008  0.65254  0.00341  1.0000
  H   H30       1.0  0.35137  0.74528  0.99721  1.0000
  H   H31       1.0  0.25611  0.60505  0.01157  1.0000
  H   H32       1.0  0.60560  0.35159  0.00053  1.0000
  H   H33       1.0  0.64773  0.25338  0.00044  1.0000
  H   H34       1.0  0.74623  0.39395  0.98554  1.0000
  H   H35       1.0  0.65053  0.39582  0.99390  1.0000
  H   H36       1.0  0.74559  0.34906  0.98887  1.0000
  H   H37       1.0  0.60390  0.25423  0.00685  1.0000
  H   H38       1.0  0.35516  0.60754  0.00496  1.0000
  H   H39       1.0  0.25386  0.64760  0.99763  1.0000
  H   H40       1.0  0.39666  0.74612  0.99298  1.0000
  H   H41       1.0  0.03206  0.56692  0.49555  1.0000
  C   C103      1.0  0.01760  0.53850  0.49797  1.0000
  O   O13       1.0  0.09826  0.57660  0.49946  1.0000
  C   C104      1.0  0.13194  0.58199  0.49669  1.0000
  C   C105      1.0  0.16319  0.61466  0.49393  1.0000
  C   C106      1.0  0.16319  0.64665  0.48982  1.0000
  H   H42       1.0  0.13798  0.64596  0.48806  1.0000
  C   C107      1.0  0.19470  0.67805  0.49033  1.0000
  H   H43       1.0  0.19509  0.70287  0.48777  1.0000
  C   C108      1.0  0.22739  0.67838  0.49309  1.0000
  C   C109      1.0  0.25951  0.71065  0.49316  1.0000
  C   C110      1.0  0.41546  0.61327  0.50676  1.0000
  C   C111      1.0  0.34934  0.57785  0.50618  1.0000
  O   O14       1.0  0.42321  0.52257  0.51600  1.0000
  C   C112      1.0  0.41618  0.54995  0.51295  1.0000
  C   C113      1.0  0.38266  0.54733  0.51112  1.0000
  C   C114      1.0  0.35057  0.51479  0.51033  1.0000
  H   H44       1.0  0.35183  0.49077  0.51280  1.0000
  C   C115      1.0  0.31853  0.51378  0.50816  1.0000
  H   H45       1.0  0.29404  0.48919  0.51062  1.0000
  C   C116      1.0  0.31773  0.54580  0.50771  1.0000
  C   C117      1.0  0.28571  0.54579  0.51087  1.0000
  C   C118      1.0  0.38415  0.80265  0.49708  1.0000
  C   C119      1.0  0.41766  0.77019  0.49019  1.0000
  H   H46       1.0  0.53165  0.96566  0.48428  1.0000
  C   C120      1.0  0.51785  0.98050  0.48930  1.0000
  O   O15       1.0  0.47674  0.90070  0.49868  1.0000
  C   C121      1.0  0.44873  0.86641  0.49863  1.0000
  C   C122      1.0  0.45022  0.83475  0.49542  1.0000
  C   C123      1.0  0.48172  0.83381  0.49023  1.0000
  H   H47       1.0  0.50604  0.85846  0.48716  1.0000
  C   C124      1.0  0.48125  0.80188  0.48565  1.0000
  H   H48       1.0  0.50519  0.80093  0.47953  1.0000
  C   C125      1.0  0.44900  0.76940  0.48627  1.0000
  C   C126      1.0  0.44864  0.73706  0.48777  1.0000
  C   C127      1.0  0.19579  0.58111  0.50464  1.0000
  C   C128      1.0  0.22733  0.64654  0.49638  1.0000
  H   H49       1.0  0.96593  0.43666  0.50247  1.0000
  C   C129      1.0  0.98030  0.46496  0.49885  1.0000
  O   O16       1.0  0.89976  0.42582  0.49242  1.0000
  C   C130      1.0  0.86550  0.41932  0.49195  1.0000
  C   C131      1.0  0.83449  0.38607  0.49240  1.0000
  C   C132      1.0  0.83505  0.35426  0.49485  1.0000
  H   H50       1.0  0.86049  0.35547  0.49654  1.0000
  C   C133      1.0  0.80385  0.32239  0.49357  1.0000
  H   H51       1.0  0.80404  0.29780  0.49546  1.0000
  C   C134      1.0  0.77084  0.32138  0.49155  1.0000
  C   C135      1.0  0.73896  0.28882  0.49140  1.0000
  C   C136      1.0  0.58104  0.38489  0.50210  1.0000
  C   C137      1.0  0.64677  0.42008  0.49833  1.0000
  O   O17       1.0  0.57477  0.47716  0.50953  1.0000
  C   C138      1.0  0.58111  0.44909  0.50600  1.0000
  C   C139      1.0  0.61420  0.45133  0.50317  1.0000
  C   C140      1.0  0.64590  0.48370  0.50125  1.0000
  H   H52       1.0  0.64472  0.50787  0.50094  1.0000
  C   C141      1.0  0.67733  0.48421  0.49708  1.0000
  H   H53       1.0  0.70126  0.50844  0.49025  1.0000
  C   C142      1.0  0.67810  0.45209  0.49530  1.0000
  C   C143      1.0  0.70980  0.45203  0.48746  1.0000
  C   C144      1.0  0.61514  0.19687  0.49548  1.0000
  C   C145      1.0  0.58144  0.22917  0.50872  1.0000
  H   H54       1.0  0.46843  0.03319  0.50297  1.0000
  C   C146      1.0  0.48220  0.01832  0.49820  1.0000
  O   O18       1.0  0.52350  0.09860  0.49679  1.0000
  C   C147      1.0  0.55121  0.13287  0.49607  1.0000
  C   C148      1.0  0.54959  0.16455  0.50215  1.0000
  C   C149      1.0  0.51817  0.16517  0.51132  1.0000
  H   H55       1.0  0.49427  0.14026  0.51517  1.0000
  C   C150      1.0  0.51837  0.19710  0.51891  1.0000
  H   H56       1.0  0.49479  0.19820  0.52998  1.0000
  C   C151      1.0  0.55008  0.22959  0.51579  1.0000
  C   C152      1.0  0.54956  0.26145  0.51444  1.0000
  C   C153      1.0  0.80092  0.41864  0.48416  1.0000
  C   C154      1.0  0.77030  0.35297  0.48939  1.0000
  H   H57       1.0  0.56511  0.03164  0.49080  1.0000
  C   C155      1.0  0.53672  0.01762  0.49331  1.0000
  O   O19       1.0  0.57577  0.09835  0.49151  1.0000
  C   C156      1.0  0.58213  0.13264  0.49201  1.0000
  C   C157      1.0  0.61512  0.16382  0.49014  1.0000
  C   C158      1.0  0.64684  0.16352  0.48405  1.0000
  H   H58       1.0  0.64590  0.13807  0.48025  1.0000
  C   C159      1.0  0.67830  0.19494  0.48414  1.0000
  H   H59       1.0  0.70264  0.19475  0.47846  1.0000
  C   C160      1.0  0.67915  0.22804  0.48942  1.0000
  C   C161      1.0  0.71123  0.26039  0.48951  1.0000
  C   C162      1.0  0.61417  0.41848  0.50166  1.0000
  C   C163      1.0  0.58000  0.35233  0.50224  1.0000
  O   O20       1.0  0.52222  0.42404  0.50875  1.0000
  C   C164      1.0  0.55000  0.41760  0.50560  1.0000
  C   C165      1.0  0.54813  0.38435  0.50395  1.0000
  C   C166      1.0  0.51619  0.35206  0.50512  1.0000
  H   H60       1.0  0.49201  0.35285  0.50880  1.0000
  C   C167      1.0  0.51610  0.32057  0.50507  1.0000
  H   H61       1.0  0.49215  0.29621  0.51115  1.0000
  C   C168      1.0  0.54837  0.32040  0.50419  1.0000
  C   C169      1.0  0.54889  0.28870  0.50869  1.0000
  C   C170      1.0  0.80147  0.38582  0.48889  1.0000
  C   C171      1.0  0.76915  0.41955  0.48023  1.0000
  H   H62       1.0  0.96582  0.53402  0.48741  1.0000
  C   C172      1.0  0.98040  0.51997  0.49253  1.0000
  O   O21       1.0  0.89968  0.47852  0.49210  1.0000
  C   C173      1.0  0.86526  0.45038  0.49051  1.0000
  C   C174      1.0  0.83359  0.45180  0.48556  1.0000
  C   C175      1.0  0.83300  0.48345  0.47969  1.0000
  H   H63       1.0  0.85783  0.50760  0.47672  1.0000
  C   C176      1.0  0.80125  0.48325  0.47476  1.0000
  H   H64       1.0  0.80030  0.50719  0.46782  1.0000
  C   C177      1.0  0.76881  0.45116  0.47642  1.0000
  C   C178      1.0  0.73701  0.45155  0.47982  1.0000
  C   C179      1.0  0.58244  0.19733  0.50272  1.0000
  C   C180      1.0  0.64762  0.22829  0.49464  1.0000
  H   H65       1.0  0.43498  0.96720  0.49700  1.0000
  C   C181      1.0  0.46334  0.98122  0.49423  1.0000
  O   O22       1.0  0.42371  0.90048  0.49369  1.0000
  C   C182      1.0  0.41747  0.86653  0.49750  1.0000
  C   C183      1.0  0.38416  0.83547  0.49809  1.0000
  C   C184      1.0  0.35204  0.83561  0.49825  1.0000
  H   H66       1.0  0.35300  0.86088  0.49855  1.0000
  C   C185      1.0  0.32018  0.80426  0.49661  1.0000
  H   H67       1.0  0.29540  0.80419  0.49694  1.0000
  C   C186      1.0  0.31946  0.77147  0.49636  1.0000
  C   C187      1.0  0.28715  0.73918  0.49527  1.0000
  C   C188      1.0  0.38237  0.57979  0.50796  1.0000
  C   C189      1.0  0.41652  0.64572  0.50404  1.0000
  O   O23       1.0  0.47538  0.57534  0.51321  1.0000
  C   C190      1.0  0.44702  0.58112  0.51071  1.0000
  C   C191      1.0  0.44838  0.61373  0.50625  1.0000
  C   C192      1.0  0.48009  0.64542  0.50139  1.0000
  H   H68       1.0  0.50421  0.64443  0.49864  1.0000
  C   C193      1.0  0.48005  0.67664  0.49766  1.0000
  H   H69       1.0  0.50400  0.70077  0.49052  1.0000
  C   C194      1.0  0.44802  0.67723  0.49911  1.0000
  C   C195      1.0  0.44800  0.70914  0.49318  1.0000
  C   C196      1.0  0.19585  0.61414  0.49767  1.0000
  C   C197      1.0  0.22732  0.57956  0.51097  1.0000
  H   H70       1.0  0.03195  0.46933  0.50857  1.0000
  C   C198      1.0  0.01739  0.48342  0.50363  1.0000
  O   O24       1.0  0.09718  0.52337  0.50087  1.0000
  C   C199      1.0  0.13152  0.55066  0.49936  1.0000
  C   C200      1.0  0.16277  0.54845  0.50411  1.0000
  C   C201      1.0  0.16269  0.51659  0.51193  1.0000
  H   H71       1.0  0.13765  0.49289  0.51577  1.0000
  C   C202      1.0  0.19410  0.51605  0.51791  1.0000
  H   H72       1.0  0.19438  0.49184  0.52566  1.0000
  C   C203      1.0  0.22696  0.54769  0.51661  1.0000
  C   C204      1.0  0.25858  0.54670  0.51596  1.0000
  C   C205      1.0  0.41702  0.80212  0.49396  1.0000
  C   C206      1.0  0.35137  0.77138  0.49709  1.0000
  C   C207      1.0  0.03659  0.52043  0.50269  1.0000
  B   B7        1.0  0.07678  0.53994  0.50134  1.0000
  B   B8        1.0  0.46013  0.53869  0.51573  1.0000
  C   C208      1.0  0.48088  0.96166  0.49052  1.0000
  B   B9        1.0  0.46068  0.92152  0.49399  1.0000
  C   C209      1.0  0.96116  0.48289  0.49272  1.0000
  B   B10       1.0  0.92076  0.46272  0.49193  1.0000
  B   B11       1.0  0.53806  0.46125  0.51144  1.0000
  C   C210      1.0  0.51922  0.03719  0.49750  1.0000
  B   B12       1.0  0.53928  0.07744  0.49542  1.0000
  H   H73       1.0  0.39260  0.64713  0.50588  1.0000
  H   H74       1.0  0.35010  0.74609  0.49869  1.0000
  H   H75       1.0  0.25274  0.60309  0.50859  1.0000
  H   H76       1.0  0.60421  0.35132  0.50198  1.0000
  H   H77       1.0  0.64890  0.25380  0.49732  1.0000
  H   H78       1.0  0.74419  0.39578  0.48403  1.0000
  H   H79       1.0  0.64836  0.39610  0.49699  1.0000
  H   H80       1.0  0.74478  0.35141  0.48859  1.0000
  H   H81       1.0  0.60501  0.25420  0.50452  1.0000
  H   H82       1.0  0.34744  0.60142  0.50234  1.0000
  H   H83       1.0  0.25260  0.64751  0.49771  1.0000
  H   H84       1.0  0.39373  0.74532  0.49356  1.0000
  C  Sn1       1.0  0.10861  0.56908  0.94445  1.0000
  C   C211      1.0  0.13224  0.60611  0.95065  1.0000
  C  Sn2       1.0  0.12451  0.63372  0.99729  1.0000
  C  Sn3       1.0  0.98972  0.52091  0.03873  1.0000
  C   C212      1.0  0.96612  0.48390  0.03255  1.0000
  C  Sn4       1.0  0.07661  0.55949  0.98588  1.0000
  O  Te1       1.0  0.11688  0.54193  0.89749  1.0000
  O  Te2       1.0  0.04575  0.56732  0.00251  1.0000
  O  Te3       1.0  0.98147  0.54809  0.08571  1.0000
  O  Te4       1.0  0.05261  0.52269  0.98069  1.0000
  Mg  Mg1       1.0  0.02264  0.59436  0.07410  1.0000
  Mg  Mg2       1.0  0.07570  0.49564  0.90923  1.0000
  C  Sn5       1.0  0.46827  0.45841  0.44692  1.0000
  C   C213      1.0  0.50589  0.47343  0.45914  1.0000
  C  Sn6       1.0  0.53413  0.51444  0.51926  1.0000
  C  Sn7       1.0  0.52460  0.54100  0.56831  1.0000
  C   C214      1.0  0.48700  0.52597  0.55611  1.0000
  C  Sn8       1.0  0.45873  0.48496  0.49597  1.0000
  O  Te5       1.0  0.44050  0.41730  0.38648  1.0000
  O  Te6       1.0  0.57153  0.52876  0.53027  1.0000
  O  Te7       1.0  0.55241  0.58213  0.62878  1.0000
  O  Te8       1.0  0.42136  0.47065  0.48497  1.0000
  Mg  Mg3       1.0  0.59931  0.58720  0.62056  1.0000
  Mg  Mg4       1.0  0.39357  0.41222  0.39481  1.0000
  C  Sn9       1.0  0.54721  0.53572  0.07857  1.0000
  C   C215      1.0  0.53276  0.49850  0.07072  1.0000
  C  Sn10      1.0  0.49216  0.47044  0.01653  1.0000
  C  Sn11      1.0  0.56822  0.58300  0.96908  1.0000
  C   C216      1.0  0.58267  0.62021  0.97691  1.0000
  C  Sn12      1.0  0.52048  0.54506  0.03112  1.0000
  O  Te9       1.0  0.58791  0.56331  0.13311  1.0000
  O  Te10      1.0  0.47842  0.43343  0.00981  1.0000
  O  Te11      1.0  0.52749  0.55537  0.91452  1.0000
  O  Te12      1.0  0.53422  0.58204  0.03782  1.0000
  Mg  Mg5       1.0  0.52315  0.50901  0.92697  1.0000
  Mg  Mg6       1.0  0.59227  0.60971  0.12054  1.0000
