data_image0
_chemical_formula_structural       C12H6C21N3H9C3H7C3H7C3H7C3H7C3H7C3H7C12H6C21N3H9C3H7C3H7C3H7C3H7C3H7C3H7C2Sn2C2HTe2HMgC2Sn2C2HTe2HMgC2Sn2C2HTe2HMgC2Sn2C2HTe2HMgC2Sn2C2HTe2HMgC2Sn2C2HTe2HMg
_chemical_formula_sum              "C126 H126 N6 Sn12 Te12 Mg6"
_cell_length_a       26.0937
_cell_length_b       26.1319
_cell_length_c       10.3195
_cell_angle_alpha    90.0894
_cell_angle_beta     91.7984
_cell_angle_gamma    120.13

_symmetry_space_group_name_H-M    'P1'
_space_group_IT_number       1

loop_
  _space_group_symop_operation_xyz
  'x, y, z'

loop_
  _atom_site_type_symbol
  _atom_site_label
  _atom_site_symmetry_multiplicity
  _atom_site_fract_x
  _atom_site_fract_y
  _atom_site_fract_z
  _atom_site_occupancy
  C   C1        1.0  0.73104  0.36671  0.28510  1.0000
  C   C2        1.0  0.63559  0.36424  0.28165  1.0000
  C   C3        1.0  0.63786  0.27145  0.28464  1.0000
  C   C4        1.0  0.70009  0.30459  0.28667  1.0000
  C   C5        1.0  0.69777  0.39543  0.28406  1.0000
  C   C6        1.0  0.60654  0.30218  0.28265  1.0000
  C   C7        1.0  0.27286  0.64294  0.24437  1.0000
  C   C8        1.0  0.35881  0.62923  0.24253  1.0000
  C   C9        1.0  0.37276  0.72903  0.24273  1.0000
  C   C10       1.0  0.31097  0.70440  0.24305  1.0000
  C   C11       1.0  0.29724  0.60575  0.24424  1.0000
  C   C12       1.0  0.39612  0.69097  0.24145  1.0000
  H   H1        1.0  0.72485  0.28140  0.28708  1.0000
  H   H2        1.0  0.72085  0.44336  0.28222  1.0000
  H   H3        1.0  0.55846  0.27697  0.27891  1.0000
  H   H4        1.0  0.29237  0.73348  0.24462  1.0000
  H   H5        1.0  0.26793  0.55805  0.24732  1.0000
  H   H6        1.0  0.44394  0.70956  0.24149  1.0000
  C   C13       1.0  0.79661  0.40114  0.27674  1.0000
  C   C14       1.0  0.60183  0.39598  0.27134  1.0000
  C   C15       1.0  0.60575  0.20581  0.27703  1.0000
  C   C16       1.0  0.83182  0.37489  0.29431  1.0000
  C   C17       1.0  0.62941  0.45764  0.28809  1.0000
  C   C18       1.0  0.54499  0.17179  0.30022  1.0000
  C   C19       1.0  0.63454  0.17512  0.24035  1.0000
  C   C20       1.0  0.82580  0.46118  0.24367  1.0000
  C   C21       1.0  0.54089  0.36553  0.23875  1.0000
  C   C22       1.0  0.89265  0.40559  0.27469  1.0000
  C   C23       1.0  0.59890  0.48826  0.26873  1.0000
  C   C24       1.0  0.51327  0.11046  0.28239  1.0000
  C   C25       1.0  0.60566  0.11359  0.22703  1.0000
  C   C26       1.0  0.88693  0.49482  0.22883  1.0000
  C   C27       1.0  0.50745  0.39346  0.22422  1.0000
  C   C28       1.0  0.92064  0.46617  0.24312  1.0000
  C   C29       1.0  0.53727  0.45603  0.23775  1.0000
  C   C30       1.0  0.54371  0.08080  0.24629  1.0000
  C   C31       1.0  0.02021  0.53571  0.29354  1.0000
  C   C32       1.0  0.46903  0.48591  0.28654  1.0000
  C   C33       1.0  0.51784  0.98277  0.28921  1.0000
  N   N1        1.0  0.98155  0.49461  0.21698  1.0000
  N   N2        1.0  0.50887  0.48901  0.21142  1.0000
  N   N3        1.0  0.50909  0.01928  0.22194  1.0000
  H   H7        1.0  0.81140  0.32897  0.32297  1.0000
  H   H8        1.0  0.67618  0.48298  0.31654  1.0000
  H   H9        1.0  0.52141  0.19354  0.33307  1.0000
  H   H10       1.0  0.68122  0.20016  0.21900  1.0000
  H   H11       1.0  0.79981  0.48255  0.22635  1.0000
  H   H12       1.0  0.51854  0.31809  0.22147  1.0000
  H   H13       1.0  0.00727  0.54964  0.38137  1.0000
  H   H14       1.0  0.45672  0.45848  0.37323  1.0000
  H   H15       1.0  0.55152  0.99815  0.36839  1.0000
  C   C34       1.0  0.62965  0.55504  0.28651  1.0000
  C   C35       1.0  0.69570  0.58711  0.25520  1.0000
  C   C36       1.0  0.62180  0.57146  0.42504  1.0000
  H   H16       1.0  0.60670  0.56993  0.21853  1.0000
  H   H17       1.0  0.72229  0.57938  0.32877  1.0000
  H   H18       1.0  0.71344  0.63512  0.25299  1.0000
  H   H19       1.0  0.70293  0.57288  0.16067  1.0000
  H   H20       1.0  0.64175  0.55473  0.49603  1.0000
  H   H21       1.0  0.57486  0.55200  0.44752  1.0000
  H   H22       1.0  0.64345  0.61968  0.43878  1.0000
  C   C37       1.0  0.44171  0.35755  0.18547  1.0000
  C   C38       1.0  0.41342  0.29093  0.20968  1.0000
  C   C39       1.0  0.43193  0.36862  0.04293  1.0000
  H   H23       1.0  0.41839  0.37369  0.24504  1.0000
  H   H24       1.0  0.42973  0.26956  0.14405  1.0000
  H   H25       1.0  0.36519  0.26915  0.19268  1.0000
  H   H26       1.0  0.42200  0.28199  0.30962  1.0000
  H   H27       1.0  0.45673  0.35603  0.97876  1.0000
  H   H28       1.0  0.44808  0.41589  0.02975  1.0000
  H   H29       1.0  0.38479  0.34356  0.01262  1.0000
  C   C40       1.0  0.44746  0.07462  0.30719  1.0000
  C   C41       1.0  0.41392  0.10751  0.27367  1.0000
  C   C42       1.0  0.43758  0.05406  0.44866  1.0000
  H   H30       1.0  0.42964  0.03499  0.24392  1.0000
  H   H31       1.0  0.42639  0.14496  0.34079  1.0000
  H   H32       1.0  0.36596  0.07766  0.28083  1.0000
  H   H33       1.0  0.42235  0.12467  0.17482  1.0000
  H   H34       1.0  0.45656  0.09240  0.51568  1.0000
  H   H35       1.0  0.45897  0.02820  0.47376  1.0000
  H   H36       1.0  0.39005  0.02686  0.46661  1.0000
  C   C43       1.0  0.63936  0.08346  0.18265  1.0000
  C   C44       1.0  0.70699  0.12125  0.20254  1.0000
  C   C45       1.0  0.62233  0.06331  0.04004  1.0000
  H   H37       1.0  0.62516  0.04365  0.24050  1.0000
  H   H38       1.0  0.72598  0.15977  0.13920  1.0000
  H   H39       1.0  0.72759  0.09485  0.17872  1.0000
  H   H40       1.0  0.72011  0.13740  0.30327  1.0000
  H   H41       1.0  0.63557  0.10141  0.97691  1.0000
  H   H42       1.0  0.57409  0.03475  0.02777  1.0000
  H   H43       1.0  0.64370  0.03869  0.00762  1.0000
  C   C46       1.0  0.93002  0.37627  0.29028  1.0000
  C   C47       1.0  0.89563  0.30969  0.25726  1.0000
  C   C48       1.0  0.95856  0.38769  0.42805  1.0000
  H   H44       1.0  0.96586  0.39821  0.22156  1.0000
  H   H45       1.0  0.86311  0.28445  0.33056  1.0000
  H   H46       1.0  0.92609  0.29226  0.25336  1.0000
  H   H47       1.0  0.87161  0.30049  0.16298  1.0000
  H   H48       1.0  0.92402  0.36824  0.49985  1.0000
  H   H49       1.0  0.98547  0.43517  0.45162  1.0000
  H   H50       1.0  0.98693  0.36795  0.43945  1.0000
  C   C49       1.0  0.91573  0.55914  0.18812  1.0000
  C   C50       1.0  0.87758  0.58771  0.20940  1.0000
  C   C51       1.0  0.93304  0.56433  0.04561  1.0000
  H   H51       1.0  0.95675  0.58442  0.24766  1.0000
  H   H52       1.0  0.83823  0.56859  0.14345  1.0000
  H   H53       1.0  0.90321  0.63524  0.18991  1.0000
  H   H54       1.0  0.86254  0.58258  0.30923  1.0000
  H   H55       1.0  0.89370  0.53848  0.98164  1.0000
  H   H56       1.0  0.96296  0.54682  0.03223  1.0000
  H   H57       1.0  0.95527  0.61061  0.01501  1.0000
  C   C52       1.0  0.72841  0.36685  0.76421  1.0000
  C   C53       1.0  0.63188  0.36213  0.75791  1.0000
  C   C54       1.0  0.63631  0.27055  0.76593  1.0000
  C   C55       1.0  0.69840  0.30482  0.76868  1.0000
  C   C56       1.0  0.69411  0.39446  0.75839  1.0000
  C   C57       1.0  0.60388  0.30017  0.76182  1.0000
  C   C58       1.0  0.27112  0.64296  0.73801  1.0000
  C   C59       1.0  0.35636  0.62810  0.73265  1.0000
  C   C60       1.0  0.37136  0.72809  0.72668  1.0000
  C   C61       1.0  0.30981  0.70429  0.73271  1.0000
  C   C62       1.0  0.29504  0.60530  0.73844  1.0000
  C   C63       1.0  0.39401  0.68946  0.72485  1.0000
  H   H58       1.0  0.72390  0.28244  0.77306  1.0000
  H   H59       1.0  0.71622  0.44227  0.75216  1.0000
  H   H60       1.0  0.55580  0.27439  0.76005  1.0000
  H   H61       1.0  0.29199  0.73403  0.73548  1.0000
  H   H62       1.0  0.26562  0.55776  0.74543  1.0000
  H   H63       1.0  0.44163  0.70738  0.72033  1.0000
  C   C64       1.0  0.79411  0.40158  0.76074  1.0000
  C   C65       1.0  0.59703  0.39283  0.75065  1.0000
  C   C66       1.0  0.60593  0.20495  0.76252  1.0000
  C   C67       1.0  0.82871  0.37461  0.77724  1.0000
  C   C68       1.0  0.62409  0.45409  0.77358  1.0000
  C   C69       1.0  0.54553  0.16982  0.78819  1.0000
  C   C70       1.0  0.63622  0.17522  0.73004  1.0000
  C   C71       1.0  0.82446  0.46249  0.73591  1.0000
  C   C72       1.0  0.53583  0.36219  0.72019  1.0000
  C   C73       1.0  0.88999  0.40531  0.76515  1.0000
  C   C74       1.0  0.59302  0.48445  0.76241  1.0000
  C   C75       1.0  0.51539  0.10837  0.77477  1.0000
  C   C76       1.0  0.60899  0.11366  0.72108  1.0000
  C   C77       1.0  0.88597  0.49606  0.72743  1.0000
  C   C78       1.0  0.50190  0.38994  0.71327  1.0000
  C   C79       1.0  0.91926  0.46683  0.74141  1.0000
  C   C80       1.0  0.53142  0.45220  0.73176  1.0000
  C   C81       1.0  0.54702  0.07976  0.73910  1.0000
  C   C82       1.0  0.01888  0.53849  0.79397  1.0000
  C   C83       1.0  0.46516  0.48407  0.78902  1.0000
  C   C84       1.0  0.52221  0.98079  0.77486  1.0000
  N   N4        1.0  0.98059  0.49496  0.72187  1.0000
  N   N5        1.0  0.50249  0.48492  0.70943  1.0000
  N   N6        1.0  0.51302  0.01841  0.71364  1.0000
  H   H64       1.0  0.80756  0.32797  0.79973  1.0000
  H   H65       1.0  0.67095  0.47924  0.80112  1.0000
  H   H66       1.0  0.52125  0.19096  0.82020  1.0000
  H   H67       1.0  0.68288  0.20103  0.70904  1.0000
  H   H68       1.0  0.79925  0.48483  0.72121  1.0000
  H   H69       1.0  0.51363  0.31500  0.69925  1.0000
  H   H70       1.0  0.00600  0.55569  0.87639  1.0000
  H   H71       1.0  0.45469  0.45847  0.87834  1.0000
  H   H72       1.0  0.55655  0.99422  0.85237  1.0000
  C   C85       1.0  0.62274  0.55058  0.78894  1.0000
  C   C86       1.0  0.68957  0.58432  0.76591  1.0000
  C   C87       1.0  0.61161  0.56304  0.92830  1.0000
  H   H73       1.0  0.60095  0.56693  0.72135  1.0000
  H   H74       1.0  0.71429  0.57371  0.83875  1.0000
  H   H75       1.0  0.70688  0.63221  0.77322  1.0000
  H   H76       1.0  0.69965  0.57433  0.66977  1.0000
  H   H77       1.0  0.63296  0.54743  0.99848  1.0000
  H   H78       1.0  0.56430  0.54025  0.94911  1.0000
  H   H79       1.0  0.63003  0.61072  0.94543  1.0000
  C   C88       1.0  0.43551  0.35479  0.68084  1.0000
  C   C89       1.0  0.40748  0.28785  0.69943  1.0000
  C   C90       1.0  0.42191  0.36803  0.54277  1.0000
  H   H80       1.0  0.41417  0.37026  0.74832  1.0000
  H   H81       1.0  0.42271  0.26753  0.62836  1.0000
  H   H82       1.0  0.35907  0.26622  0.68631  1.0000
  H   H83       1.0  0.41759  0.27757  0.79681  1.0000
  H   H84       1.0  0.44558  0.35732  0.47134  1.0000
  H   H85       1.0  0.43650  0.41526  0.53518  1.0000
  H   H86       1.0  0.37420  0.34237  0.51792  1.0000
  C   C91       1.0  0.45046  0.07088  0.80629  1.0000
  C   C92       1.0  0.41524  0.10328  0.79077  1.0000
  C   C93       1.0  0.44542  0.04702  0.94467  1.0000
  H   H87       1.0  0.43136  0.03282  0.73801  1.0000
  H   H88       1.0  0.42898  0.13845  0.86488  1.0000
  H   H89       1.0  0.36774  0.07236  0.80210  1.0000
  H   H90       1.0  0.42075  0.12345  0.69513  1.0000
  H   H91       1.0  0.46668  0.08378  0.01572  1.0000
  H   H92       1.0  0.46741  0.02081  0.95639  1.0000
  H   H93       1.0  0.39885  0.01901  0.96966  1.0000
  C   C94       1.0  0.64491  0.08480  0.68409  1.0000
  C   C95       1.0  0.71189  0.12416  0.71121  1.0000
  C   C96       1.0  0.63120  0.06396  0.54163  1.0000
  H   H94       1.0  0.63049  0.04544  0.74343  1.0000
  H   H95       1.0  0.73134  0.16289  0.64861  1.0000
  H   H96       1.0  0.73446  0.09916  0.69212  1.0000
  H   H97       1.0  0.72197  0.14005  0.81253  1.0000
  H   H98       1.0  0.64355  0.10151  0.47738  1.0000
  H   H99       1.0  0.58343  0.03360  0.52679  1.0000
  H   H100      1.0  0.65482  0.04102  0.51318  1.0000
  C   C97       1.0  0.92600  0.37456  0.78214  1.0000
  C   C98       1.0  0.89154  0.30881  0.74082  1.0000
  C   C99       1.0  0.95058  0.38173  0.92292  1.0000
  H   H101      1.0  0.96405  0.39786  0.71940  1.0000
  H   H102      1.0  0.85715  0.28199  0.80940  1.0000
  H   H103      1.0  0.92163  0.29093  0.73743  1.0000
  H   H104      1.0  0.86979  0.30219  0.64442  1.0000
  H   H105      1.0  0.91402  0.36047  0.98978  1.0000
  H   H106      1.0  0.97736  0.42846  0.95325  1.0000
  H   H107      1.0  0.97810  0.36102  0.93450  1.0000
  C   C100      1.0  0.91580  0.56139  0.69419  1.0000
  C   C101      1.0  0.87733  0.58974  0.71435  1.0000
  C   C102      1.0  0.93690  0.57021  0.55413  1.0000
  H   H108      1.0  0.95510  0.58527  0.75919  1.0000
  H   H109      1.0  0.83936  0.57221  0.64468  1.0000
  H   H110      1.0  0.90379  0.63764  0.69966  1.0000
  H   H111      1.0  0.86018  0.58286  0.81250  1.0000
  H   H112      1.0  0.89922  0.54556  0.48529  1.0000
  H   H113      1.0  0.96760  0.55356  0.54179  1.0000
  H   H114      1.0  0.95953  0.61719  0.52901  1.0000
  C   C103      1.0  0.17194  0.63585  0.36634  1.0000
  C   C104      1.0  0.20335  0.62181  0.27967  1.0000
  C  Sn1       1.0  0.17316  0.57914  0.18163  1.0000
  C  Sn2       1.0  0.11038  0.55008  0.17036  1.0000
  C   C105      1.0  0.07937  0.56447  0.25749  1.0000
  C   C106      1.0  0.11001  0.60722  0.35526  1.0000
  H   H115      1.0  0.19565  0.66895  0.44195  1.0000
  O  Te1       1.0  0.20523  0.56563  0.09589  1.0000
  O  Te2       1.0  0.07910  0.50727  0.07325  1.0000
  H   H116      1.0  0.08569  0.61811  0.42230  1.0000
  Mg  Mg1       1.0  0.15962  0.51329  0.97974  1.0000
  C   C107      1.0  0.44262  0.59661  0.15457  1.0000
  C   C108      1.0  0.39418  0.59147  0.21989  1.0000
  C  Sn3       1.0  0.36870  0.54986  0.31719  1.0000
  C  Sn4       1.0  0.39226  0.51279  0.34951  1.0000
  C   C109      1.0  0.44075  0.51831  0.28365  1.0000
  C   C110      1.0  0.46590  0.56008  0.18642  1.0000
  H   H117      1.0  0.46210  0.62895  0.07939  1.0000
  O  Te3       1.0  0.32031  0.54529  0.38144  1.0000
  O  Te4       1.0  0.36766  0.47085  0.44639  1.0000
  H   H118      1.0  0.50342  0.56409  0.13593  1.0000
  Mg  Mg2       1.0  0.30213  0.48138  0.50629  1.0000
  C   C111      1.0  0.42423  0.87891  0.15727  1.0000
  C   C112      1.0  0.46906  0.91324  0.24950  1.0000
  C  Sn5       1.0  0.48750  0.88621  0.34179  1.0000
  C  Sn6       1.0  0.46048  0.82364  0.34147  1.0000
  C   C113      1.0  0.41570  0.78969  0.24874  1.0000
  C   C114      1.0  0.39758  0.81719  0.15686  1.0000
  H   H119      1.0  0.41022  0.90018  0.08613  1.0000
  O  Te5       1.0  0.53233  0.92118  0.43327  1.0000
  O  Te6       1.0  0.47807  0.79548  0.43258  1.0000
  H   H120      1.0  0.36289  0.79060  0.08541  1.0000
  Mg  Mg3       1.0  0.54099  0.86223  0.53765  1.0000
  C   C115      1.0  0.15063  0.55674  0.66075  1.0000
  C   C116      1.0  0.19707  0.60693  0.72291  1.0000
  C  Sn7       1.0  0.18537  0.63661  0.81995  1.0000
  C  Sn8       1.0  0.12603  0.61554  0.85523  1.0000
  C   C117      1.0  0.07989  0.56527  0.79252  1.0000
  C   C118      1.0  0.09209  0.53592  0.69552  1.0000
  H   H121      1.0  0.16007  0.53401  0.58574  1.0000
  O  Te7       1.0  0.23229  0.68669  0.88103  1.0000
  O  Te8       1.0  0.11309  0.64434  0.95192  1.0000
  H   H122      1.0  0.05613  0.49704  0.64747  1.0000
  Mg  Mg4       1.0  0.17516  0.70162  0.00693  1.0000
  C   C119      1.0  0.44680  0.56799  0.64432  1.0000
  C   C120      1.0  0.44231  0.53033  0.74483  1.0000
  C  Sn9       1.0  0.40383  0.52007  0.84534  1.0000
  C  Sn10      1.0  0.36924  0.54808  0.84495  1.0000
  C   C121      1.0  0.37402  0.58564  0.74391  1.0000
  C   C122      1.0  0.41268  0.59561  0.64383  1.0000
  H   H123      1.0  0.47668  0.57568  0.56685  1.0000
  O  Te9       1.0  0.39991  0.48234  0.94503  1.0000
  O  Te10      1.0  0.33041  0.53858  0.94418  1.0000
  H   H124      1.0  0.41611  0.62474  0.56599  1.0000
  Mg  Mg5       1.0  0.32365  0.47425  0.05869  1.0000
  C   C123      1.0  0.47685  0.83086  0.82648  1.0000
  C   C124      1.0  0.42344  0.79798  0.75522  1.0000
  C  Sn11      1.0  0.40223  0.82637  0.67354  1.0000
  C  Sn12      1.0  0.43522  0.88884  0.66317  1.0000
  C   C125      1.0  0.48862  0.92134  0.73480  1.0000
  C   C126      1.0  0.50942  0.89248  0.81627  1.0000
  H   H125      1.0  0.49296  0.80853  0.88946  1.0000
  O  Te11      1.0  0.34877  0.79285  0.60307  1.0000
  O  Te12      1.0  0.41506  0.91835  0.58223  1.0000
  H   H126      1.0  0.55080  0.91794  0.87137  1.0000
  Mg  Mg6       1.0  0.33970  0.85330  0.50585  1.0000
