data_image0
_chemical_formula_structural       C12H6C15N3H11C12H6C27N3H19SnCSn2CSnTe4Mg2SnCSn2CSnTe4Mg2SnCSn2CSnTe4Mg2SnCSn2CSnTe4Mg2SnCSn2CSnTe4Mg2SnCSn2CSnTe4Mg2
_chemical_formula_sum              "C78 H42 N6 Sn24 Te24 Mg12"
_cell_length_a       26.0311
_cell_length_b       25.9219
_cell_length_c       8.04877
_cell_angle_alpha    93.1024
_cell_angle_beta     109.504
_cell_angle_gamma    119.431

_symmetry_space_group_name_H-M    'P1'
_space_group_IT_number       1

loop_
  _space_group_symop_operation_xyz
  'x, y, z'

loop_
  _atom_site_type_symbol
  _atom_site_label
  _atom_site_symmetry_multiplicity
  _atom_site_fract_x
  _atom_site_fract_y
  _atom_site_fract_z
  _atom_site_occupancy
  C   C1        1.0  0.72793  0.36046  0.23215  1.0000
  C   C2        1.0  0.63981  0.36828  0.25417  1.0000
  C   C3        1.0  0.63416  0.27079  0.24327  1.0000
  C   C4        1.0  0.69443  0.29858  0.23413  1.0000
  C   C5        1.0  0.69938  0.39398  0.23999  1.0000
  C   C6        1.0  0.60776  0.30606  0.25446  1.0000
  C   C7        1.0  0.27091  0.64202  0.26080  1.0000
  C   C8        1.0  0.36108  0.63324  0.27163  1.0000
  C   C9        1.0  0.37012  0.73179  0.27022  1.0000
  C   C10       1.0  0.30713  0.70393  0.26191  1.0000
  C   C11       1.0  0.29823  0.60683  0.26177  1.0000
  C   C12       1.0  0.39705  0.69585  0.28053  1.0000
  H   H1        1.0  0.71423  0.27084  0.22273  1.0000
  H   H2        1.0  0.72553  0.44184  0.23907  1.0000
  H   H3        1.0  0.56250  0.28434  0.27037  1.0000
  H   H4        1.0  0.28461  0.73025  0.24938  1.0000
  H   H5        1.0  0.27121  0.55880  0.26127  1.0000
  H   H6        1.0  0.44608  0.71588  0.29026  1.0000
  C   C13       1.0  0.40611  0.79616  0.26148  1.0000
  C   C14       1.0  0.59850  0.20532  0.24124  1.0000
  C   C15       1.0  0.45936  0.81849  0.21487  1.0000
  C   C16       1.0  0.53110  0.16748  0.13732  1.0000
  C   C17       1.0  0.62994  0.17913  0.34418  1.0000
  C   C18       1.0  0.38855  0.83756  0.29993  1.0000
  C   C19       1.0  0.49405  0.87934  0.20953  1.0000
  C   C20       1.0  0.49627  0.10630  0.13794  1.0000
  C   C21       1.0  0.59558  0.11762  0.34428  1.0000
  C   C22       1.0  0.42207  0.89786  0.29063  1.0000
  C   C23       1.0  0.47568  0.91992  0.24591  1.0000
  C   C24       1.0  0.52813  0.08015  0.23951  1.0000
  C   C25       1.0  0.01863  0.53251  0.27052  1.0000
  C   C26       1.0  0.47340  0.49280  0.21880  1.0000
  C   C27       1.0  0.51108  0.98291  0.23292  1.0000
  N   N1        1.0  0.97975  0.47366  0.23152  1.0000
  N   N2        1.0  0.53403  0.51374  0.31072  1.0000
  N   N3        1.0  0.49056  0.01893  0.24029  1.0000
  H   H7        1.0  0.47269  0.78744  0.17669  1.0000
  H   H8        1.0  0.50630  0.18665  0.05326  1.0000
  H   H9        1.0  0.68167  0.20804  0.42981  1.0000
  H   H10       1.0  0.34914  0.82274  0.34279  1.0000
  H   H11       1.0  0.53453  0.89521  0.17055  1.0000
  H   H12       1.0  0.44419  0.07727  0.05739  1.0000
  H   H13       1.0  0.61994  0.09871  0.43191  1.0000
  H   H14       1.0  0.40849  0.92959  0.32122  1.0000
  H   H15       1.0  0.00725  0.56446  0.31931  1.0000
  H   H16       1.0  0.44074  0.44803  0.11576  1.0000
  H   H17       1.0  0.55550  0.99766  0.21216  1.0000
  C   C28       1.0  0.72753  0.35857  0.73747  1.0000
  C   C29       1.0  0.63661  0.36474  0.74117  1.0000
  C   C30       1.0  0.63071  0.26736  0.73002  1.0000
  C   C31       1.0  0.69305  0.29627  0.73432  1.0000
  C   C32       1.0  0.69884  0.39203  0.74435  1.0000
  C   C33       1.0  0.60246  0.30160  0.72929  1.0000
  C   C34       1.0  0.26924  0.63809  0.75403  1.0000
  C   C35       1.0  0.35885  0.62947  0.75840  1.0000
  C   C36       1.0  0.36776  0.72819  0.75988  1.0000
  C   C37       1.0  0.30543  0.70020  0.75694  1.0000
  C   C38       1.0  0.29640  0.60290  0.75180  1.0000
  C   C39       1.0  0.39412  0.69187  0.76437  1.0000
  H   H18       1.0  0.71377  0.26902  0.72859  1.0000
  H   H19       1.0  0.72670  0.44114  0.75935  1.0000
  H   H20       1.0  0.55400  0.27870  0.72568  1.0000
  H   H21       1.0  0.28316  0.72656  0.75059  1.0000
  H   H22       1.0  0.26984  0.55492  0.75222  1.0000
  H   H23       1.0  0.44230  0.71129  0.76805  1.0000
  C   C40       1.0  0.20418  0.61024  0.75317  1.0000
  C   C41       1.0  0.38741  0.59235  0.75717  1.0000
  C   C42       1.0  0.40404  0.79321  0.75552  1.0000
  C   C43       1.0  0.79258  0.38840  0.73723  1.0000
  C   C44       1.0  0.18725  0.64566  0.83323  1.0000
  C   C45       1.0  0.35207  0.53489  0.63003  1.0000
  C   C46       1.0  0.46149  0.81835  0.72870  1.0000
  C   C47       1.0  0.83217  0.36498  0.79977  1.0000
  C   C48       1.0  0.81730  0.44119  0.67374  1.0000
  C   C49       1.0  0.38326  0.83302  0.78109  1.0000
  C   C50       1.0  0.15693  0.54702  0.67163  1.0000
  C   C51       1.0  0.45112  0.61429  0.88250  1.0000
  C   C52       1.0  0.12605  0.61897  0.83379  1.0000
  C   C53       1.0  0.38016  0.50118  0.62540  1.0000
  C   C54       1.0  0.49670  0.87980  0.72948  1.0000
  C   C55       1.0  0.89274  0.39214  0.79555  1.0000
  C   C56       1.0  0.87867  0.46971  0.67368  1.0000
  C   C57       1.0  0.41762  0.89407  0.77908  1.0000
  C   C58       1.0  0.09615  0.52013  0.67371  1.0000
  C   C59       1.0  0.47914  0.58065  0.87876  1.0000
  C   C60       1.0  0.07980  0.55567  0.75628  1.0000
  C   C61       1.0  0.44418  0.52384  0.74826  1.0000
  C   C62       1.0  0.47523  0.91871  0.75369  1.0000
  C   C63       1.0  0.91755  0.44555  0.73506  1.0000
  C   C64       1.0  0.01752  0.52830  0.76874  1.0000
  C   C65       1.0  0.47327  0.48890  0.73317  1.0000
  C   C66       1.0  0.51116  0.98219  0.74537  1.0000
  N   N4        1.0  0.97787  0.46954  0.72821  1.0000
  N   N5        1.0  0.53480  0.51224  0.81358  1.0000
  N   N6        1.0  0.48835  0.01673  0.74056  1.0000
  H   H24       1.0  0.22316  0.69417  0.90066  1.0000
  H   H25       1.0  0.30324  0.51783  0.53025  1.0000
  H   H26       1.0  0.47846  0.78924  0.70283  1.0000
  H   H27       1.0  0.81582  0.32572  0.85671  1.0000
  H   H28       1.0  0.78695  0.45894  0.61751  1.0000
  H   H29       1.0  0.34020  0.81652  0.80734  1.0000
  H   H30       1.0  0.16792  0.51927  0.60165  1.0000
  H   H31       1.0  0.47793  0.65770  0.98578  1.0000
  H   H32       1.0  0.11435  0.64674  0.90092  1.0000
  H   H33       1.0  0.35325  0.45770  0.52205  1.0000
  H   H34       1.0  0.54054  0.89764  0.70606  1.0000
  H   H35       1.0  0.92285  0.37363  0.84367  1.0000
  H   H36       1.0  0.89550  0.50881  0.61619  1.0000
  H   H37       1.0  0.40145  0.92443  0.80014  1.0000
  H   H38       1.0  0.05975  0.47152  0.60952  1.0000
  H   H39       1.0  0.52811  0.59720  0.97640  1.0000
  H   H40       1.0  0.00713  0.56051  0.82146  1.0000
  H   H41       1.0  0.43995  0.44181  0.64280  1.0000
  H   H42       1.0  0.55787  0.99857  0.73711  1.0000
  C  Sn1       1.0  0.87317  0.37487  0.24705  1.0000
  C   C67       1.0  0.90445  0.42714  0.18921  1.0000
  C  Sn2       1.0  0.88218  0.46663  0.16464  1.0000
  C  Sn3       1.0  0.82753  0.45361  0.19869  1.0000
  C   C68       1.0  0.79629  0.40137  0.25652  1.0000
  C  Sn4       1.0  0.81852  0.36185  0.28110  1.0000
  O  Te1       1.0  0.89628  0.33604  0.27072  1.0000
  O  Te2       1.0  0.91424  0.51860  0.10666  1.0000
  O  Te3       1.0  0.80444  0.49250  0.17495  1.0000
  O  Te4       1.0  0.78650  0.30992  0.33906  1.0000
  Mg  Mg1       1.0  0.86446  0.55757  0.09412  1.0000
  Mg  Mg2       1.0  0.83625  0.27093  0.35174  1.0000
  C  Sn5       1.0  0.46945  0.62211  0.35890  1.0000
  C   C69       1.0  0.40652  0.60688  0.25500  1.0000
  C  Sn6       1.0  0.35809  0.54679  0.14906  1.0000
  C  Sn7       1.0  0.37287  0.50095  0.14702  1.0000
  C   C70       1.0  0.43577  0.51618  0.25090  1.0000
  C  Sn8       1.0  0.48423  0.57627  0.35686  1.0000
  O  Te5       1.0  0.51710  0.68248  0.46381  1.0000
  O  Te6       1.0  0.29554  0.53267  0.04627  1.0000
  O  Te7       1.0  0.32516  0.44054  0.04199  1.0000
  O  Te8       1.0  0.54675  0.59039  0.45962  1.0000
  Mg  Mg3       1.0  0.39415  0.53322  0.92521  1.0000
  Mg  Mg4       1.0  0.59510  0.67912  0.58080  1.0000
  C  Sn9       1.0  0.54919  0.41536  0.88578  1.0000
  C   C71       1.0  0.56459  0.47110  0.84194  1.0000
  C  Sn10      1.0  0.59973  0.49175  0.73540  1.0000
  C  Sn11      1.0  0.61988  0.45593  0.67122  1.0000
  C   C72       1.0  0.60447  0.40022  0.71502  1.0000
  C  Sn12      1.0  0.56933  0.37954  0.82160  1.0000
  O  Te9       1.0  0.51401  0.39561  0.99247  1.0000
  O  Te10      1.0  0.61457  0.54763  0.69341  1.0000
  O  Te11      1.0  0.65509  0.47573  0.56445  1.0000
  O  Te12      1.0  0.55449  0.32369  0.86356  1.0000
  Mg  Mg5       1.0  0.66346  0.55498  0.54367  1.0000
  Mg  Mg6       1.0  0.35864  0.22697  0.01320  1.0000
  C  Sn13      1.0  0.65234  0.48395  0.33778  1.0000
  C   C73       1.0  0.62508  0.42121  0.32355  1.0000
  C  Sn14      1.0  0.55893  0.38227  0.27865  1.0000
  C  Sn15      1.0  0.51919  0.40653  0.24721  1.0000
  C   C74       1.0  0.54645  0.46923  0.26142  1.0000
  C  Sn16      1.0  0.61260  0.50821  0.30634  1.0000
  O  Te13      1.0  0.71858  0.52203  0.38281  1.0000
  O  Te14      1.0  0.53278  0.31971  0.26528  1.0000
  O  Te15      1.0  0.45290  0.36839  0.20216  1.0000
  O  Te16      1.0  0.63874  0.57074  0.31968  1.0000
  Mg  Mg7       1.0  0.43990  0.28640  0.20017  1.0000
  Mg  Mg8       1.0  0.73161  0.60408  0.38469  1.0000
  C  Sn17      1.0  0.62727  0.16043  0.81524  1.0000
  C   C75       1.0  0.60347  0.19135  0.71014  1.0000
  C  Sn18      1.0  0.53687  0.16659  0.62650  1.0000
  C  Sn19      1.0  0.49314  0.10976  0.64843  1.0000
  C   C76       1.0  0.51694  0.07888  0.75349  1.0000
  C  Sn20      1.0  0.58354  0.10360  0.83717  1.0000
  O  Te17      1.0  0.69404  0.18604  0.89762  1.0000
  O  Te18      1.0  0.51423  0.19834  0.52203  1.0000
  O  Te19      1.0  0.42632  0.08416  0.56593  1.0000
  O  Te20      1.0  0.09550  0.07189  0.94160  1.0000
  Mg  Mg9       1.0  0.41904  0.14476  0.43702  1.0000
  Mg  Mg10      1.0  0.55442  0.03613  0.02675  1.0000
  C  Sn21      1.0  0.13752  0.54468  0.12368  1.0000
  C   C77       1.0  0.18937  0.60595  0.19746  1.0000
  C  Sn22      1.0  0.19013  0.64579  0.32361  1.0000
  C  Sn23      1.0  0.13799  0.62394  0.37724  1.0000
  C   C78       1.0  0.08618  0.56270  0.30350  1.0000
  C  Sn24      1.0  0.08537  0.52282  0.17731  1.0000
  O  Te21      1.0  0.28471  0.59497  0.99778  1.0000
  O  Te22      1.0  0.24249  0.70686  0.39544  1.0000
  O  Te23      1.0  0.13776  0.66302  0.50324  1.0000
  O  Te24      1.0  0.03305  0.46179  0.10552  1.0000
  Mg  Mg11      1.0  0.21997  0.74226  0.56269  1.0000
  Mg  Mg12      1.0  0.20247  0.51565  0.93835  1.0000
