data_image0
_chemical_formula_structural       C12H6C3N3H3C12H6C3N3H3C2Sn2C2HTe2HMgC2Sn2C2HTe2HMgC2Sn2C2HTe2HMgC2Sn2C2HTe2HMgC2Sn2C2HTe2HMgC2Sn2C2HTe2HMgC2Sn2C2HTe2HMgC2Sn2C2HTe2HMgC2Sn2C2HTe2HMgC2Sn2C2HTe2HMgC2Sn2C2HTe2HMgC2Sn2C2HTe2HMg
_chemical_formula_sum              "C78 H42 N6 Sn24 Te24 Mg12"
_cell_length_a       26.0311
_cell_length_b       25.9219
_cell_length_c       8.04877
_cell_angle_alpha    93.1024
_cell_angle_beta     109.504
_cell_angle_gamma    119.431

_symmetry_space_group_name_H-M    'P1'
_space_group_IT_number       1

loop_
  _space_group_symop_operation_xyz
  'x, y, z'

loop_
  _atom_site_type_symbol
  _atom_site_label
  _atom_site_symmetry_multiplicity
  _atom_site_fract_x
  _atom_site_fract_y
  _atom_site_fract_z
  _atom_site_occupancy
  C   C1        1.0  0.72793  0.36046  0.23215  1.0000
  C   C2        1.0  0.63981  0.36828  0.25417  1.0000
  C   C3        1.0  0.63416  0.27079  0.24327  1.0000
  C   C4        1.0  0.69443  0.29858  0.23413  1.0000
  C   C5        1.0  0.69938  0.39398  0.23999  1.0000
  C   C6        1.0  0.60776  0.30606  0.25446  1.0000
  C   C7        1.0  0.27091  0.64202  0.26080  1.0000
  C   C8        1.0  0.36108  0.63324  0.27163  1.0000
  C   C9        1.0  0.37012  0.73179  0.27022  1.0000
  C   C10       1.0  0.30713  0.70393  0.26191  1.0000
  C   C11       1.0  0.29823  0.60683  0.26177  1.0000
  C   C12       1.0  0.39705  0.69585  0.28053  1.0000
  H   H1        1.0  0.71423  0.27084  0.22273  1.0000
  H   H2        1.0  0.72553  0.44184  0.23907  1.0000
  H   H3        1.0  0.56250  0.28434  0.27037  1.0000
  H   H4        1.0  0.28461  0.73025  0.24938  1.0000
  H   H5        1.0  0.27121  0.55880  0.26127  1.0000
  H   H6        1.0  0.44608  0.71588  0.29026  1.0000
  C   C13       1.0  0.01863  0.53251  0.27052  1.0000
  C   C14       1.0  0.47340  0.49280  0.21880  1.0000
  C   C15       1.0  0.51108  0.98291  0.23292  1.0000
  N   N1        1.0  0.97975  0.47366  0.23152  1.0000
  N   N2        1.0  0.53403  0.51374  0.31072  1.0000
  N   N3        1.0  0.49056  0.01893  0.24029  1.0000
  H   H7        1.0  0.00725  0.56446  0.31931  1.0000
  H   H8        1.0  0.44074  0.44803  0.11576  1.0000
  H   H9        1.0  0.55550  0.99766  0.21216  1.0000
  C   C16       1.0  0.72753  0.35857  0.73747  1.0000
  C   C17       1.0  0.63661  0.36474  0.74117  1.0000
  C   C18       1.0  0.63071  0.26736  0.73002  1.0000
  C   C19       1.0  0.69305  0.29627  0.73432  1.0000
  C   C20       1.0  0.69884  0.39203  0.74435  1.0000
  C   C21       1.0  0.60246  0.30160  0.72929  1.0000
  C   C22       1.0  0.26924  0.63809  0.75403  1.0000
  C   C23       1.0  0.35885  0.62947  0.75840  1.0000
  C   C24       1.0  0.36776  0.72819  0.75988  1.0000
  C   C25       1.0  0.30543  0.70020  0.75694  1.0000
  C   C26       1.0  0.29640  0.60290  0.75180  1.0000
  C   C27       1.0  0.39412  0.69187  0.76437  1.0000
  H   H10       1.0  0.71377  0.26902  0.72859  1.0000
  H   H11       1.0  0.72670  0.44114  0.75935  1.0000
  H   H12       1.0  0.55400  0.27870  0.72568  1.0000
  H   H13       1.0  0.28316  0.72656  0.75059  1.0000
  H   H14       1.0  0.26984  0.55492  0.75222  1.0000
  H   H15       1.0  0.44230  0.71129  0.76805  1.0000
  C   C28       1.0  0.01752  0.52830  0.76874  1.0000
  C   C29       1.0  0.47327  0.48890  0.73317  1.0000
  C   C30       1.0  0.51116  0.98219  0.74537  1.0000
  N   N4        1.0  0.97787  0.46954  0.72821  1.0000
  N   N5        1.0  0.53480  0.51224  0.81358  1.0000
  N   N6        1.0  0.48835  0.01673  0.74056  1.0000
  H   H16       1.0  0.00713  0.56051  0.82146  1.0000
  H   H17       1.0  0.43995  0.44181  0.64280  1.0000
  H   H18       1.0  0.55787  0.99857  0.73711  1.0000
  C   C31       1.0  0.17610  0.65240  0.34239  1.0000
  C   C32       1.0  0.20323  0.62399  0.28444  1.0000
  C  Sn1       1.0  0.16574  0.56098  0.20002  1.0000
  C  Sn2       1.0  0.09987  0.52590  0.17327  1.0000
  C   C33       1.0  0.07317  0.55477  0.23162  1.0000
  C   C34       1.0  0.11113  0.61784  0.31600  1.0000
  H   H19       1.0  0.20546  0.70120  0.40759  1.0000
  O  Te1       1.0  0.19361  0.53332  0.14301  1.0000
  O  Te2       1.0  0.06129  0.46287  0.08922  1.0000
  H   H20       1.0  0.09010  0.63984  0.36074  1.0000
  Mg  Mg1       1.0  0.12132  0.44608  0.03527  1.0000
  C   C35       1.0  0.48305  0.59839  0.39557  1.0000
  C   C36       1.0  0.45381  0.53980  0.28395  1.0000
  C  Sn3       1.0  0.38979  0.50923  0.15341  1.0000
  C  Sn4       1.0  0.35452  0.53798  0.13456  1.0000
  C   C37       1.0  0.38422  0.59662  0.24681  1.0000
  C   C38       1.0  0.44830  0.62679  0.37703  1.0000
  H   H21       1.0  0.53264  0.62174  0.49626  1.0000
  O  Te3       1.0  0.36131  0.45070  0.04305  1.0000
  O  Te4       1.0  0.29047  0.50847  0.00516  1.0000
  H   H22       1.0  0.47094  0.67217  0.46335  1.0000
  Mg  Mg2       1.0  0.41976  0.51841  0.88665  1.0000
  C   C39       1.0  0.39152  0.85333  0.30870  1.0000
  C   C40       1.0  0.39889  0.80516  0.26495  1.0000
  C  Sn5       1.0  0.44862  0.81553  0.21320  1.0000
  C  Sn6       1.0  0.49172  0.87530  0.20528  1.0000
  C   C41       1.0  0.48397  0.92319  0.24944  1.0000
  C   C42       1.0  0.43402  0.91230  0.30099  1.0000
  H   H23       1.0  0.35290  0.84491  0.34869  1.0000
  O  Te5       1.0  0.45528  0.76688  0.16986  1.0000
  O  Te6       1.0  0.54186  0.88695  0.15405  1.0000
  H   H24       1.0  0.42836  0.94961  0.33498  1.0000
  Mg  Mg3       1.0  0.53113  0.80570  0.10769  1.0000
  C   C43       1.0  0.86360  0.47121  0.15532  1.0000
  C   C44       1.0  0.91173  0.45867  0.22904  1.0000
  C  Sn7       1.0  0.89900  0.40816  0.30169  1.0000
  C  Sn8       1.0  0.83687  0.36956  0.30028  1.0000
  C   C45       1.0  0.78902  0.38248  0.22609  1.0000
  C   C46       1.0  0.80229  0.43316  0.15380  1.0000
  H   H25       1.0  0.87385  0.51040  0.09929  1.0000
  O  Te7       1.0  0.94765  0.39630  0.37488  1.0000
  O  Te8       1.0  0.82282  0.31876  0.37193  1.0000
  H   H26       1.0  0.76500  0.44283  0.09662  1.0000
  Mg  Mg4       1.0  0.90509  0.32161  0.45650  1.0000
  C   C47       1.0  0.63405  0.50350  0.29505  1.0000
  C   C48       1.0  0.57287  0.48452  0.28854  1.0000
  C  Sn9       1.0  0.53037  0.42364  0.28168  1.0000
  C  Sn10      1.0  0.54961  0.38106  0.28139  1.0000
  C   C49       1.0  0.61094  0.40050  0.28805  1.0000
  C   C50       1.0  0.65308  0.46154  0.29483  1.0000
  H   H27       1.0  0.66667  0.55072  0.30039  1.0000
  O  Te9       1.0  0.46941  0.40545  0.27517  1.0000
  O  Te10      1.0  0.50810  0.31993  0.27467  1.0000
  H   H28       1.0  0.70047  0.47622  0.29999  1.0000
  Mg  Mg5       1.0  0.42999  0.31720  0.26728  1.0000
  C   C51       1.0  0.62979  0.16656  0.36527  1.0000
  C   C52       1.0  0.60825  0.19872  0.25940  1.0000
  C  Sn11      1.0  0.54264  0.17052  0.14445  1.0000
  C  Sn12      1.0  0.49788  0.10899  0.13565  1.0000
  C   C53       1.0  0.51991  0.07722  0.24221  1.0000
  C   C54       1.0  0.58567  0.10587  0.35673  1.0000
  H   H29       1.0  0.68066  0.18873  0.45396  1.0000
  O  Te11      1.0  0.52194  0.20331  0.03955  1.0000
  O  Te12      1.0  0.43203  0.07970  0.02197  1.0000
  H   H30       1.0  0.60233  0.08097  0.43877  1.0000
  Mg  Mg6       1.0  0.57429  0.23282  0.90538  1.0000
  C   C55       1.0  0.14123  0.53263  0.66360  1.0000
  C   C56       1.0  0.19155  0.59453  0.72187  1.0000
  C  Sn13      1.0  0.18666  0.63865  0.81085  1.0000
  C  Sn14      1.0  0.13031  0.62031  0.84193  1.0000
  C   C57       1.0  0.08026  0.55827  0.78322  1.0000
  C   C58       1.0  0.08564  0.51451  0.69425  1.0000
  H   H31       1.0  0.14541  0.49877  0.59485  1.0000
  O  Te13      1.0  0.23737  0.70029  0.86811  1.0000
  O  Te14      1.0  0.12417  0.66345  0.93059  1.0000
  H   H32       1.0  0.04670  0.46658  0.64926  1.0000
  Mg  Mg7       1.0  0.20632  0.74195  0.98299  1.0000
  C   C59       1.0  0.36524  0.50175  0.60887  1.0000
  C   C60       1.0  0.42856  0.51773  0.71131  1.0000
  C  Sn15      1.0  0.47212  0.57242  0.85061  1.0000
  C  Sn16      1.0  0.45176  0.61175  0.88777  1.0000
  C   C61       1.0  0.38829  0.59533  0.78459  1.0000
  C   C62       1.0  0.34511  0.54050  0.64547  1.0000
  H   H33       1.0  0.33181  0.45932  0.50129  1.0000
  O  Te15      1.0  0.53521  0.58770  0.95160  1.0000
  O  Te16      1.0  0.34735  0.57736  0.02625  1.0000
  H   H34       1.0  0.29607  0.52812  0.56626  1.0000
  Mg  Mg8       1.0  0.42839  0.57814  0.12621  1.0000
  C   C63       1.0  0.38577  0.84861  0.78924  1.0000
  C   C64       1.0  0.39605  0.80184  0.75426  1.0000
  C  Sn17      1.0  0.45023  0.81473  0.72252  1.0000
  C  Sn18      1.0  0.49485  0.87562  0.72601  1.0000
  C   C65       1.0  0.48416  0.92210  0.76126  1.0000
  C   C66       1.0  0.42978  0.90869  0.79278  1.0000
  H   H35       1.0  0.34372  0.83825  0.81373  1.0000
  O  Te17      1.0  0.45975  0.76746  0.68772  1.0000
  O  Te18      1.0  0.54941  0.88979  0.69482  1.0000
  H   H36       1.0  0.42186  0.94491  0.81998  1.0000
  Mg  Mg9       1.0  0.54132  0.80963  0.65338  1.0000
  C   C67       1.0  0.84641  0.36399  0.80398  1.0000
  C   C68       1.0  0.80352  0.38376  0.76434  1.0000
  C  Sn19      1.0  0.81649  0.43474  0.69391  1.0000
  C  Sn20      1.0  0.87349  0.46641  0.66269  1.0000
  C   C69       1.0  0.91607  0.44625  0.70267  1.0000
  C   C70       1.0  0.90263  0.39520  0.77316  1.0000
  H   H37       1.0  0.83599  0.32447  0.85843  1.0000
  O  Te19      1.0  0.77313  0.45388  0.65513  1.0000
  O  Te20      1.0  0.88763  0.51749  0.59234  1.0000
  H   H38       1.0  0.93583  0.37988  0.80372  1.0000
  Mg  Mg10      1.0  0.81364  0.52596  0.56120  1.0000
  C   C71       1.0  0.54828  0.38448  0.83271  1.0000
  C   C72       1.0  0.59465  0.39489  0.76559  1.0000
  C  Sn21      1.0  0.62563  0.44911  0.71560  1.0000
  C  Sn22      1.0  0.60981  0.49367  0.73335  1.0000
  C   C73       1.0  0.56339  0.48285  0.80076  1.0000
  C   C74       1.0  0.53266  0.42842  0.85032  1.0000
  H   H39       1.0  0.52453  0.34239  0.87116  1.0000
  O  Te21      1.0  0.67183  0.45876  0.64872  1.0000
  O  Te22      1.0  0.64006  0.54828  0.68446  1.0000
  H   H40       1.0  0.49679  0.42040  0.90240  1.0000
  Mg  Mg11      1.0  0.69976  0.54036  0.60017  1.0000
  C   C75       1.0  0.51304  0.14713  0.59799  1.0000
  C   C76       1.0  0.57747  0.19384  0.70634  1.0000
  C  Sn23      1.0  0.61832  0.18115  0.83455  1.0000
  C  Sn24      1.0  0.59409  0.12052  0.85430  1.0000
  C   C77       1.0  0.52957  0.07410  0.74516  1.0000
  C   C78       1.0  0.48910  0.08731  0.61733  1.0000
  H   H41       1.0  0.48173  0.15734  0.49901  1.0000
  O  Te23      1.0  0.68256  0.22837  0.94174  1.0000
  O  Te24      1.0  0.63387  0.10655  0.98133  1.0000
  H   H42       1.0  0.43923  0.05113  0.53338  1.0000
  Mg  Mg12      1.0  0.57092  0.09722  0.09588  1.0000
