data_image0
_chemical_formula_structural       C12H6C3N3H3C12H6C3N3H3SnCSn2CSnTe4Mg2SnCSn2CSnTe4Mg2SnCSn2CSnTe4Mg2SnCSn2CSnTe4Mg2SnCSn2CSnTe4Mg2SnCSn2CSnTe4Mg2SnCSn2CSnTe4Mg2SnCSn2CSnTe4Mg2SnCSn2CSnTe4Mg2SnCSn2CSnTe4Mg2SnCSn2CSnTe4Mg2SnCSn2CSnTe4Mg2
_chemical_formula_sum              "C54 H18 N6 Sn48 Te48 Mg24"
_cell_length_a       26.0311
_cell_length_b       25.9219
_cell_length_c       8.04877
_cell_angle_alpha    93.1024
_cell_angle_beta     109.504
_cell_angle_gamma    119.431

_symmetry_space_group_name_H-M    'P1'
_space_group_IT_number       1

loop_
  _space_group_symop_operation_xyz
  'x, y, z'

loop_
  _atom_site_type_symbol
  _atom_site_label
  _atom_site_symmetry_multiplicity
  _atom_site_fract_x
  _atom_site_fract_y
  _atom_site_fract_z
  _atom_site_occupancy
  C   C1        1.0  0.72793  0.36046  0.23215  1.0000
  C   C2        1.0  0.63981  0.36828  0.25417  1.0000
  C   C3        1.0  0.63416  0.27079  0.24327  1.0000
  C   C4        1.0  0.69443  0.29858  0.23413  1.0000
  C   C5        1.0  0.69938  0.39398  0.23999  1.0000
  C   C6        1.0  0.60776  0.30606  0.25446  1.0000
  C   C7        1.0  0.27091  0.64202  0.26080  1.0000
  C   C8        1.0  0.36108  0.63324  0.27163  1.0000
  C   C9        1.0  0.37012  0.73179  0.27022  1.0000
  C   C10       1.0  0.30713  0.70393  0.26191  1.0000
  C   C11       1.0  0.29823  0.60683  0.26177  1.0000
  C   C12       1.0  0.39705  0.69585  0.28053  1.0000
  H   H1        1.0  0.71423  0.27084  0.22273  1.0000
  H   H2        1.0  0.72553  0.44184  0.23907  1.0000
  H   H3        1.0  0.56250  0.28434  0.27037  1.0000
  H   H4        1.0  0.28461  0.73025  0.24938  1.0000
  H   H5        1.0  0.27121  0.55880  0.26127  1.0000
  H   H6        1.0  0.44608  0.71588  0.29026  1.0000
  C   C13       1.0  0.01863  0.53251  0.27052  1.0000
  C   C14       1.0  0.47340  0.49280  0.21880  1.0000
  C   C15       1.0  0.51108  0.98291  0.23292  1.0000
  N   N1        1.0  0.97975  0.47366  0.23152  1.0000
  N   N2        1.0  0.53403  0.51374  0.31072  1.0000
  N   N3        1.0  0.49056  0.01893  0.24029  1.0000
  H   H7        1.0  0.00725  0.56446  0.31931  1.0000
  H   H8        1.0  0.44074  0.44803  0.11576  1.0000
  H   H9        1.0  0.55550  0.99766  0.21216  1.0000
  C   C16       1.0  0.72753  0.35857  0.73747  1.0000
  C   C17       1.0  0.63661  0.36474  0.74117  1.0000
  C   C18       1.0  0.63071  0.26736  0.73002  1.0000
  C   C19       1.0  0.69305  0.29627  0.73432  1.0000
  C   C20       1.0  0.69884  0.39203  0.74435  1.0000
  C   C21       1.0  0.60246  0.30160  0.72929  1.0000
  C   C22       1.0  0.26924  0.63809  0.75403  1.0000
  C   C23       1.0  0.35885  0.62947  0.75840  1.0000
  C   C24       1.0  0.36776  0.72819  0.75988  1.0000
  C   C25       1.0  0.30543  0.70020  0.75694  1.0000
  C   C26       1.0  0.29640  0.60290  0.75180  1.0000
  C   C27       1.0  0.39412  0.69187  0.76437  1.0000
  H   H10       1.0  0.71377  0.26902  0.72859  1.0000
  H   H11       1.0  0.72670  0.44114  0.75935  1.0000
  H   H12       1.0  0.55400  0.27870  0.72568  1.0000
  H   H13       1.0  0.28316  0.72656  0.75059  1.0000
  H   H14       1.0  0.26984  0.55492  0.75222  1.0000
  H   H15       1.0  0.44230  0.71129  0.76805  1.0000
  C   C28       1.0  0.01752  0.52830  0.76874  1.0000
  C   C29       1.0  0.47327  0.48890  0.73317  1.0000
  C   C30       1.0  0.51116  0.98219  0.74537  1.0000
  N   N4        1.0  0.97787  0.46954  0.72821  1.0000
  N   N5        1.0  0.53480  0.51224  0.81358  1.0000
  N   N6        1.0  0.48835  0.01673  0.74056  1.0000
  H   H16       1.0  0.00713  0.56051  0.82146  1.0000
  H   H17       1.0  0.43995  0.44181  0.64280  1.0000
  H   H18       1.0  0.55787  0.99857  0.73711  1.0000
  C  Sn1       1.0  0.13752  0.54468  0.12368  1.0000
  C   C31       1.0  0.18937  0.60595  0.19746  1.0000
  C  Sn2       1.0  0.19013  0.64579  0.32361  1.0000
  C  Sn3       1.0  0.13799  0.62394  0.37724  1.0000
  C   C32       1.0  0.08618  0.56270  0.30350  1.0000
  C  Sn4       1.0  0.08537  0.52282  0.17731  1.0000
  O  Te1       1.0  0.28471  0.59497  0.99778  1.0000
  O  Te2       1.0  0.24249  0.70686  0.39544  1.0000
  O  Te3       1.0  0.13776  0.66302  0.50324  1.0000
  O  Te4       1.0  0.03305  0.46179  0.10552  1.0000
  Mg  Mg1       1.0  0.21997  0.74226  0.56269  1.0000
  Mg  Mg2       1.0  0.20247  0.51565  0.93835  1.0000
  C  Sn5       1.0  0.34782  0.51920  0.16046  1.0000
  C   C33       1.0  0.37695  0.57620  0.28116  1.0000
  C  Sn6       1.0  0.44425  0.61297  0.37772  1.0000
  C  Sn7       1.0  0.48326  0.59237  0.35305  1.0000
  C   C34       1.0  0.45413  0.53541  0.23239  1.0000
  C  Sn8       1.0  0.38683  0.49860  0.13579  1.0000
  O  Te5       1.0  0.28045  0.48321  0.06535  1.0000
  O  Te6       1.0  0.47226  0.66976  0.49767  1.0000
  O  Te7       1.0  0.55068  0.62842  0.44829  1.0000
  O  Te8       1.0  0.35882  0.44185  0.01588  1.0000
  Mg  Mg3       1.0  0.56612  0.70225  0.59611  1.0000
  Mg  Mg4       1.0  0.41190  0.49864  0.91730  1.0000
  C  Sn9       1.0  0.48143  0.83528  0.26427  1.0000
  C   C35       1.0  0.42628  0.80563  0.30026  1.0000
  C  Sn10      1.0  0.39092  0.83253  0.29713  1.0000
  C  Sn11      1.0  0.41108  0.89025  0.25708  1.0000
  C   C36       1.0  0.46619  0.91987  0.22110  1.0000
  C  Sn12      1.0  0.50159  0.89300  0.22423  1.0000
  O  Te9       1.0  0.51604  0.80754  0.26813  1.0000
  O  Te10      1.0  0.33596  0.80202  0.33362  1.0000
  O  Te11      1.0  0.37641  0.91799  0.25325  1.0000
  O  Te12      1.0  0.55651  0.92348  0.18774  1.0000
  Mg  Mg5       1.0  0.30487  0.85843  0.31203  1.0000
  Mg  Mg6       1.0  0.58762  0.86710  0.20919  1.0000
  C  Sn13      1.0  0.82267  0.44208  0.11184  1.0000
  C   C37       1.0  0.79185  0.39043  0.17263  1.0000
  C  Sn14      1.0  0.82742  0.36948  0.28423  1.0000
  C  Sn15      1.0  0.89524  0.40082  0.33627  1.0000
  C   C38       1.0  0.92603  0.45244  0.27552  1.0000
  C  Sn16      1.0  0.89049  0.47342  0.16387  1.0000
  O  Te13      1.0  0.78615  0.46222  0.00037  1.0000
  O  Te14      1.0  0.79552  0.31773  0.34324  1.0000
  O  Te15      1.0  0.93175  0.38063  0.44782  1.0000
  O  Te16      1.0  0.92235  0.52514  0.10490  1.0000
  Mg  Mg7       1.0  0.86632  0.30802  0.49327  1.0000
  Mg  Mg8       1.0  0.99855  0.62421  0.95495  1.0000
  C  Sn17      1.0  0.62039  0.49583  0.23506  1.0000
  C   C39       1.0  0.56175  0.47711  0.24735  1.0000
  C  Sn18      1.0  0.52857  0.42185  0.29000  1.0000
  C  Sn19      1.0  0.55454  0.38453  0.32113  1.0000
  C   C40       1.0  0.61315  0.40326  0.30887  1.0000
  C  Sn20      1.0  0.64637  0.45852  0.26619  1.0000
  O  Te17      1.0  0.65274  0.55126  0.19225  1.0000
  O  Te18      1.0  0.47002  0.40409  0.30145  1.0000
  O  Te19      1.0  0.52214  0.32907  0.36395  1.0000
  O  Te20      1.0  0.70489  0.47628  0.25476  1.0000
  Mg  Mg9       1.0  0.44403  0.32465  0.36388  1.0000
  Mg  Mg10      1.0  0.73093  0.55572  0.19245  1.0000
  C  Sn21      1.0  0.50272  0.11372  0.08640  1.0000
  C   C41       1.0  0.52595  0.08184  0.18817  1.0000
  C  Sn22      1.0  0.58694  0.11371  0.33491  1.0000
  C  Sn23      1.0  0.62550  0.17880  0.38097  1.0000
  C   C42       1.0  0.60227  0.21065  0.27925  1.0000
  C  Sn24      1.0  0.54129  0.17881  0.13246  1.0000
  O  Te21      1.0  0.58853  0.17022  0.94028  1.0000
  O  Te22      1.0  0.60913  0.08083  0.43459  1.0000
  O  Te23      1.0  0.68667  0.21160  0.52722  1.0000
  O  Te24      1.0  0.51909  0.21166  0.03283  1.0000
  Mg  Mg11      1.0  0.69562  0.14619  0.62179  1.0000
  Mg  Mg12      1.0  0.57953  0.23565  0.84568  1.0000
  C  Sn25      1.0  0.13594  0.54095  0.61790  1.0000
  C   C43       1.0  0.18805  0.60206  0.69406  1.0000
  C  Sn26      1.0  0.18912  0.64132  0.82295  1.0000
  C  Sn27      1.0  0.13704  0.61902  0.87694  1.0000
  C   C44       1.0  0.08497  0.55795  0.80083  1.0000
  C  Sn28      1.0  0.08386  0.51866  0.67189  1.0000
  O  Te25      1.0  0.13589  0.50251  0.48929  1.0000
  O  Te26      1.0  0.24173  0.70223  0.89712  1.0000
  O  Te27      1.0  0.99019  0.56821  0.00566  1.0000
  O  Te28      1.0  0.03129  0.45777  0.59776  1.0000
  Mg  Mg13      1.0  0.07266  0.64746  0.06764  1.0000
  Mg  Mg14      1.0  0.05340  0.42319  0.42732  1.0000
  C  Sn29      1.0  0.47023  0.58220  0.92520  1.0000
  C   C45       1.0  0.44339  0.52635  0.80223  1.0000
  C  Sn30      1.0  0.38838  0.50456  0.64001  1.0000
  C  Sn31      1.0  0.35961  0.53934  0.59979  1.0000
  C   C46       1.0  0.38645  0.59516  0.72270  1.0000
  C  Sn32      1.0  0.44146  0.61698  0.88498  1.0000
  O  Te29      1.0  0.37831  0.51379  0.08655  1.0000
  O  Te30      1.0  0.36241  0.44858  0.51923  1.0000
  O  Te31      1.0  0.30455  0.51839  0.43829  1.0000
  O  Te32      1.0  0.32049  0.58362  0.00570  1.0000
  Mg  Mg15      1.0  0.28710  0.43947  0.31709  1.0000
  Mg  Mg16      1.0  0.39582  0.59279  0.20783  1.0000
  C  Sn33      1.0  0.41808  0.88667  0.83675  1.0000
  C   C47       1.0  0.47363  0.91729  0.80294  1.0000
  C  Sn34      1.0  0.49308  0.88416  0.72649  1.0000
  C  Sn35      1.0  0.45623  0.81905  0.68279  1.0000
  C   C48       1.0  0.40071  0.78846  0.71657  1.0000
  C  Sn36      1.0  0.38123  0.82156  0.79306  1.0000
  O  Te33      1.0  0.39953  0.92072  0.91326  1.0000
  O  Te34      1.0  0.54880  0.91579  0.69400  1.0000
  O  Te35      1.0  0.47483  0.78500  0.60623  1.0000
  O  Te36      1.0  0.32554  0.78996  0.82551  1.0000
  Mg  Mg17      1.0  0.55433  0.84899  0.58758  1.0000
  Mg  Mg18      1.0  0.31995  0.85671  0.93183  1.0000
  C  Sn37      1.0  0.87282  0.47776  0.71913  1.0000
  C   C49       1.0  0.91756  0.46032  0.77513  1.0000
  C  Sn38      1.0  0.89835  0.40193  0.80201  1.0000
  C  Sn39      1.0  0.83303  0.36009  0.77219  1.0000
  C   C50       1.0  0.78833  0.37753  0.71619  1.0000
  C  Sn40      1.0  0.80751  0.43591  0.68931  1.0000
  O  Te37      1.0  0.89311  0.53636  0.69308  1.0000
  O  Te38      1.0  0.94396  0.38555  0.85808  1.0000
  O  Te39      1.0  0.81277  0.30145  0.79829  1.0000
  O  Te40      1.0  0.76194  0.45230  0.63324  1.0000
  Mg  Mg19      1.0  0.89285  0.30052  0.87514  1.0000
  Mg  Mg20      1.0  0.81299  0.53730  0.61605  1.0000
  C  Sn41      1.0  0.54919  0.41536  0.88578  1.0000
  C   C51       1.0  0.56459  0.47110  0.84194  1.0000
  C  Sn42      1.0  0.59973  0.49175  0.73540  1.0000
  C  Sn43      1.0  0.61988  0.45593  0.67122  1.0000
  C   C52       1.0  0.60447  0.40022  0.71502  1.0000
  C  Sn44      1.0  0.56933  0.37954  0.82160  1.0000
  O  Te41      1.0  0.51401  0.39561  0.99247  1.0000
  O  Te42      1.0  0.61457  0.54763  0.69341  1.0000
  O  Te43      1.0  0.65509  0.47573  0.56445  1.0000
  O  Te44      1.0  0.55449  0.32369  0.86356  1.0000
  Mg  Mg21      1.0  0.66346  0.55498  0.54367  1.0000
  Mg  Mg22      1.0  0.35864  0.22697  0.01320  1.0000
  C  Sn45      1.0  0.50146  0.10895  0.57388  1.0000
  C   C53       1.0  0.52443  0.07907  0.68691  1.0000
  C  Sn46      1.0  0.58390  0.11289  0.83929  1.0000
  C  Sn47      1.0  0.62117  0.17792  0.87962  1.0000
  C   C54       1.0  0.59819  0.20776  0.76665  1.0000
  C  Sn48      1.0  0.53873  0.17398  0.61421  1.0000
  O  Te45      1.0  0.44187  0.07422  0.42228  1.0000
  O  Te46      1.0  0.09518  0.08199  0.95024  1.0000
  O  Te47      1.0  0.53387  0.12333  0.03137  1.0000
  O  Te48      1.0  0.51675  0.20484  0.50333  1.0000
  Mg  Mg23      1.0  0.54312  0.06023  0.14127  1.0000
  Mg  Mg24      1.0  0.43256  0.13735  0.31233  1.0000
