data_image0
_chemical_formula_structural       C42H12C30H20C6H4N6C6H6C42H12C12H8C6H4N6C6H6C2Sn2C2HTe2HMgC2Sn2C2HTe2HMgC2Sn2C2HTe2HMgC2Sn2C2HTe2HMgC2Sn2C2HTe2HMgC2Sn2C2HTe2HMgC2Sn2C2HTe2HMgC2Sn2C2HTe2HMgC2Sn2C2HTe2HMg
_chemical_formula_sum              "C186 H90 N12 Sn18 Te18 Mg9"
_cell_length_a       30.1318
_cell_length_b       30.0815
_cell_length_c       8.03603
_cell_angle_alpha    118.036
_cell_angle_beta     77.2101
_cell_angle_gamma    120.012

_symmetry_space_group_name_H-M    'P1'
_space_group_IT_number       1

loop_
  _space_group_symop_operation_xyz
  'x, y, z'

loop_
  _atom_site_type_symbol
  _atom_site_label
  _atom_site_symmetry_multiplicity
  _atom_site_fract_x
  _atom_site_fract_y
  _atom_site_fract_z
  _atom_site_occupancy
  C   C1        1.0  0.04675  0.00023  0.01562  1.0000
  C   C2        1.0  0.99990  0.04459  0.99079  1.0000
  C   C3        1.0  0.95233  0.95275  0.01151  1.0000
  C   C4        1.0  0.95257  0.99808  0.99555  1.0000
  C   C5        1.0  0.99944  0.95392  0.02210  1.0000
  C   C6        1.0  0.04702  0.04575  0.00133  1.0000
  C   C7        1.0  0.09435  0.00089  0.02290  1.0000
  C   C8        1.0  0.00018  0.09014  0.97305  1.0000
  C   C9        1.0  0.90450  0.90566  0.01593  1.0000
  C   C10       1.0  0.90506  0.99706  0.98435  1.0000
  C   C11       1.0  0.99930  0.90823  0.03833  1.0000
  C   C12       1.0  0.09489  0.09294  0.99754  1.0000
  C   C13       1.0  0.04618  0.90815  0.04420  1.0000
  C   C14       1.0  0.09559  0.13901  0.98539  1.0000
  C   C15       1.0  0.85744  0.95063  0.98897  1.0000
  C   C16       1.0  0.95343  0.08957  0.96062  1.0000
  C   C17       1.0  0.90380  0.85990  0.03072  1.0000
  C   C18       1.0  0.14196  0.04727  0.01795  1.0000
  C   C19       1.0  0.09456  0.95491  0.03290  1.0000
  C   C20       1.0  0.04738  0.13671  0.96744  1.0000
  C   C21       1.0  0.85719  0.90435  0.00618  1.0000
  C   C22       1.0  0.90495  0.04257  0.97023  1.0000
  C   C23       1.0  0.95213  0.86182  0.04587  1.0000
  C   C24       1.0  0.14226  0.09408  0.00487  1.0000
  C   C25       1.0  0.04485  0.86232  0.05473  1.0000
  C   C26       1.0  0.14273  0.18555  0.98969  1.0000
  C   C27       1.0  0.81166  0.95062  0.97836  1.0000
  C   C28       1.0  0.95496  0.13514  0.94684  1.0000
  C   C29       1.0  0.85655  0.81402  0.03110  1.0000
  C   C30       1.0  0.18776  0.04656  0.02284  1.0000
  C   C31       1.0  0.18820  0.00040  0.02281  1.0000
  C   C32       1.0  0.00119  0.18131  0.94291  1.0000
  C   C33       1.0  0.81001  0.81305  0.02558  1.0000
  C   C34       1.0  0.81118  0.99586  0.97139  1.0000
  C   C35       1.0  0.99878  0.81626  0.06017  1.0000
  C   C36       1.0  0.18929  0.18613  0.99122  1.0000
  C   C37       1.0  0.14142  0.95516  0.02849  1.0000
  C   C38       1.0  0.04666  0.17985  0.94636  1.0000
  C   C39       1.0  0.81122  0.85865  0.01495  1.0000
  C   C40       1.0  0.85801  0.04134  0.96730  1.0000
  C   C41       1.0  0.95306  0.81763  0.05956  1.0000
  C   C42       1.0  0.18821  0.13975  0.99561  1.0000
  H   H1        1.0  0.14384  0.22136  0.98345  1.0000
  H   H2        1.0  0.77509  0.91594  0.98376  1.0000
  H   H3        1.0  0.08048  0.86238  0.06105  1.0000
  H   H4        1.0  0.85519  0.77931  0.04595  1.0000
  H   H5        1.0  0.22431  0.08143  0.01833  1.0000
  H   H6        1.0  0.91947  0.13568  0.94283  1.0000
  H   H7        1.0  0.22460  0.14066  0.99650  1.0000
  H   H8        1.0  0.85718  0.07549  0.95580  1.0000
  H   H9        1.0  0.91720  0.78163  0.06121  1.0000
  H   H10       1.0  0.77484  0.85700  0.00866  1.0000
  H   H11       1.0  0.14245  0.92051  0.03555  1.0000
  H   H12       1.0  0.08253  0.21351  0.93075  1.0000
  C   C43       1.0  0.00350  0.23194  0.94648  1.0000
  C   C44       1.0  0.76067  0.76624  0.03797  1.0000
  C   C45       1.0  0.99742  0.76583  0.05403  1.0000
  C   C46       1.0  0.23862  0.23382  0.98474  1.0000
  C   C47       1.0  0.76262  0.99744  0.97847  1.0000
  C   C48       1.0  0.01194  0.33219  0.96135  1.0000
  C   C49       1.0  0.66626  0.67778  0.07430  1.0000
  C   C50       1.0  0.98996  0.66315  0.01294  1.0000
  C   C51       1.0  0.33426  0.32450  0.96993  1.0000
  C   C52       1.0  0.66959  0.00296  0.01285  1.0000
  C   C53       1.0  0.05189  0.33341  0.02900  1.0000
  C   C54       1.0  0.67626  0.73489  0.17571  1.0000
  C   C55       1.0  0.95125  0.67937  0.10175  1.0000
  C   C56       1.0  0.32467  0.26770  0.86078  1.0000
  C   C57       1.0  0.71321  0.04994  0.12191  1.0000
  C   C58       1.0  0.04731  0.28461  0.02411  1.0000
  C   C59       1.0  0.72206  0.77804  0.15471  1.0000
  C   C60       1.0  0.95526  0.72981  0.12339  1.0000
  C   C61       1.0  0.27818  0.22348  0.87101  1.0000
  C   C62       1.0  0.75900  0.04751  0.10203  1.0000
  C   C63       1.0  0.75109  0.70920  0.93937  1.0000
  C   C64       1.0  0.96337  0.23098  0.88054  1.0000
  C   C65       1.0  0.24778  0.29056  0.08996  1.0000
  C   C66       1.0  0.71871  0.95005  0.87285  1.0000
  C   C67       1.0  0.03625  0.74955  0.96562  1.0000
  C   C68       1.0  0.70464  0.66561  0.95571  1.0000
  C   C69       1.0  0.96725  0.28005  0.88787  1.0000
  C   C70       1.0  0.29485  0.33525  0.08484  1.0000
  C   C71       1.0  0.67300  0.95268  0.88770  1.0000
  C   C72       1.0  0.03290  0.69953  0.94641  1.0000
  H   H13       1.0  0.92941  0.19085  0.81578  1.0000
  H   H14       1.0  0.78032  0.69912  0.84686  1.0000
  H   H15       1.0  0.06846  0.77532  0.90401  1.0000
  H   H16       1.0  0.21755  0.29941  0.17822  1.0000
  H   H17       1.0  0.72061  0.91072  0.77736  1.0000
  H   H18       1.0  0.93706  0.27756  0.82544  1.0000
  H   H19       1.0  0.69839  0.62194  0.87874  1.0000
  H   H20       1.0  0.06296  0.68764  0.87354  1.0000
  H   H21       1.0  0.30114  0.37880  0.16827  1.0000
  H   H22       1.0  0.63959  0.91548  0.80386  1.0000
  H   H23       1.0  0.64699  0.74400  0.27055  1.0000
  H   H24       1.0  0.08611  0.37367  0.08709  1.0000
  H   H25       1.0  0.35476  0.25962  0.76889  1.0000
  H   H26       1.0  0.70982  0.08800  0.22181  1.0000
  H   H27       1.0  0.91882  0.65181  0.15698  1.0000
  H   H28       1.0  0.72933  0.82205  0.23435  1.0000
  H   H29       1.0  0.07760  0.28743  0.08680  1.0000
  H   H30       1.0  0.27144  0.17987  0.78548  1.0000
  H   H31       1.0  0.79227  0.08389  0.18879  1.0000
  H   H32       1.0  0.92572  0.74228  0.19849  1.0000
  C   C73       1.0  0.54470  0.98954  0.94905  1.0000
  C   C74       1.0  0.45460  0.00216  0.01444  1.0000
  C   C75       1.0  0.54002  0.03344  0.11443  1.0000
  C   C76       1.0  0.45920  0.95809  0.84909  1.0000
  C   C77       1.0  0.49571  0.03946  0.14634  1.0000
  C   C78       1.0  0.50363  0.95218  0.81712  1.0000
  H   H33       1.0  0.57178  0.06193  0.21578  1.0000
  H   H34       1.0  0.42771  0.92955  0.74651  1.0000
  H   H35       1.0  0.49238  0.07324  0.27558  1.0000
  H   H36       1.0  0.50721  0.91865  0.68753  1.0000
  N   N1        1.0  0.38179  0.36592  0.94705  1.0000
  N   N2        1.0  0.62529  0.00979  0.04496  1.0000
  N   N3        1.0  0.98172  0.61172  0.00060  1.0000
  N   N4        1.0  0.61885  0.63761  0.10498  1.0000
  N   N5        1.0  0.37319  0.98264  0.92635  1.0000
  N   N6        1.0  0.02115  0.38238  0.96056  1.0000
  C   C79       1.0  0.40309  0.41665  0.07949  1.0000
  C   C80       1.0  0.59103  0.98247  0.91373  1.0000
  C   C81       1.0  0.01850  0.59849  0.96825  1.0000
  C   C82       1.0  0.59720  0.58627  0.97616  1.0000
  C   C83       1.0  0.40888  0.01041  0.05265  1.0000
  C   C84       1.0  0.98472  0.39547  0.98457  1.0000
  H   H37       1.0  0.38630  0.42939  0.22002  1.0000
  H   H38       1.0  0.59547  0.95373  0.76982  1.0000
  H   H39       1.0  0.05846  0.62648  0.94824  1.0000
  H   H40       1.0  0.61403  0.57227  0.83646  1.0000
  H   H41       1.0  0.40660  0.04108  0.19584  1.0000
  H   H42       1.0  0.94552  0.36986  0.01926  1.0000
  C   C85       1.0  0.04761  0.00275  0.51395  1.0000
  C   C86       1.0  0.00142  0.04808  0.49042  1.0000
  C   C87       1.0  0.95310  0.95592  0.50865  1.0000
  C   C88       1.0  0.95382  0.00177  0.49473  1.0000
  C   C89       1.0  0.99999  0.95643  0.51829  1.0000
  C   C90       1.0  0.04830  0.04862  0.50042  1.0000
  C   C91       1.0  0.09493  0.00281  0.52160  1.0000
  C   C92       1.0  0.00216  0.09409  0.47427  1.0000
  C   C93       1.0  0.90497  0.90912  0.51329  1.0000
  C   C94       1.0  0.90646  0.00155  0.48634  1.0000
  C   C95       1.0  0.99929  0.91046  0.53468  1.0000
  C   C96       1.0  0.09640  0.09569  0.49752  1.0000
  C   C97       1.0  0.04583  0.91001  0.54274  1.0000
  C   C98       1.0  0.09760  0.14227  0.48686  1.0000
  C   C99       1.0  0.85857  0.95537  0.49103  1.0000
  C   C100      1.0  0.95557  0.09399  0.46254  1.0000
  C   C101      1.0  0.90382  0.86322  0.52846  1.0000
  C   C102      1.0  0.14281  0.04893  0.51670  1.0000
  C   C103      1.0  0.09453  0.95636  0.53038  1.0000
  C   C104      1.0  0.04958  0.14068  0.47009  1.0000
  C   C105      1.0  0.85785  0.90846  0.50537  1.0000
  C   C106      1.0  0.90683  0.04777  0.47564  1.0000
  C   C107      1.0  0.95182  0.86453  0.54323  1.0000
  C   C108      1.0  0.14347  0.09620  0.50532  1.0000
  C   C109      1.0  0.04388  0.86456  0.55839  1.0000
  C   C110      1.0  0.14506  0.18863  0.49178  1.0000
  C   C111      1.0  0.81295  0.95617  0.48382  1.0000
  C   C112      1.0  0.95752  0.13919  0.44514  1.0000
  C   C113      1.0  0.85640  0.81791  0.53115  1.0000
  C   C114      1.0  0.18843  0.04756  0.52011  1.0000
  C   C115      1.0  0.18820  0.00083  0.51829  1.0000
  C   C116      1.0  0.00391  0.18573  0.44460  1.0000
  C   C117      1.0  0.81012  0.81753  0.52677  1.0000
  C   C118      1.0  0.81303  0.00240  0.48248  1.0000
  C   C119      1.0  0.99739  0.81875  0.56336  1.0000
  C   C120      1.0  0.19124  0.18856  0.49433  1.0000
  C   C121      1.0  0.14116  0.95580  0.52345  1.0000
  C   C122      1.0  0.04922  0.18476  0.45389  1.0000
  C   C123      1.0  0.81161  0.86324  0.51607  1.0000
  C   C124      1.0  0.86008  0.04783  0.47933  1.0000
  C   C125      1.0  0.95208  0.82047  0.56001  1.0000
  C   C126      1.0  0.18968  0.14196  0.49856  1.0000
  H   H43       1.0  0.14676  0.22458  0.48439  1.0000
  H   H44       1.0  0.77616  0.92127  0.48679  1.0000
  H   H45       1.0  0.07928  0.86487  0.56976  1.0000
  H   H46       1.0  0.85466  0.78338  0.54842  1.0000
  H   H47       1.0  0.22514  0.08210  0.51449  1.0000
  H   H48       1.0  0.92206  0.13908  0.43615  1.0000
  H   H49       1.0  0.22593  0.14292  0.50216  1.0000
  H   H50       1.0  0.85942  0.08271  0.47252  1.0000
  H   H51       1.0  0.91600  0.78517  0.56489  1.0000
  H   H52       1.0  0.77537  0.86230  0.51271  1.0000
  H   H53       1.0  0.14172  0.92034  0.52607  1.0000
  H   H54       1.0  0.08533  0.21952  0.44634  1.0000
  C   C127      1.0  0.23643  0.99769  0.50362  1.0000
  C   C128      1.0  0.24107  0.23575  0.48818  1.0000
  C   C129      1.0  0.32880  0.99072  0.46865  1.0000
  C   C130      1.0  0.33796  0.32525  0.47662  1.0000
  C   C131      1.0  0.28755  0.94783  0.34080  1.0000
  C   C132      1.0  0.32591  0.26831  0.35518  1.0000
  C   C133      1.0  0.24199  0.95082  0.35931  1.0000
  C   C134      1.0  0.27859  0.22447  0.36253  1.0000
  C   C135      1.0  0.27807  0.04128  0.62863  1.0000
  C   C136      1.0  0.25293  0.29267  0.60897  1.0000
  C   C137      1.0  0.32331  0.03787  0.61338  1.0000
  C   C138      1.0  0.30062  0.33659  0.60502  1.0000
  H   H55       1.0  0.27418  0.07766  0.74184  1.0000
  H   H56       1.0  0.22491  0.30202  0.71170  1.0000
  H   H57       1.0  0.35425  0.07185  0.71531  1.0000
  H   H58       1.0  0.30924  0.37986  0.70577  1.0000
  H   H59       1.0  0.29249  0.91220  0.22739  1.0000
  H   H60       1.0  0.35472  0.25987  0.25545  1.0000
  H   H61       1.0  0.21063  0.91754  0.25819  1.0000
  H   H62       1.0  0.26970  0.18059  0.26845  1.0000
  C   C139      1.0  0.45334  0.46099  0.53439  1.0000
  C   C140      1.0  0.55355  0.54334  0.51523  1.0000
  C   C141      1.0  0.48878  0.44447  0.40951  1.0000
  C   C142      1.0  0.51810  0.55980  0.64040  1.0000
  C   C143      1.0  0.53811  0.48509  0.40047  1.0000
  C   C144      1.0  0.46879  0.51921  0.64914  1.0000
  H   H63       1.0  0.47618  0.39947  0.32079  1.0000
  H   H64       1.0  0.53047  0.60479  0.72841  1.0000
  H   H65       1.0  0.56526  0.47226  0.30178  1.0000
  H   H66       1.0  0.44145  0.53192  0.74676  1.0000
  N   N7        1.0  0.38727  0.36563  0.45952  1.0000
  N   N8        1.0  0.62668  0.01473  0.54237  1.0000
  N   N9        1.0  0.97586  0.61210  0.50303  1.0000
  N   N10       1.0  0.61825  0.63901  0.58599  1.0000
  N   N11       1.0  0.37239  0.98241  0.43605  1.0000
  N   N12       1.0  0.01808  0.38530  0.46967  1.0000
  C   C145      1.0  0.40160  0.41949  0.55009  1.0000
  C   C146      1.0  0.59029  0.98344  0.41657  1.0000
  C   C147      1.0  0.01298  0.60025  0.48277  1.0000
  C   C148      1.0  0.60483  0.58530  0.49720  1.0000
  C   C149      1.0  0.40915  0.01277  0.55989  1.0000
  C   C150      1.0  0.98023  0.39528  0.48127  1.0000
  H   H67       1.0  0.37626  0.43732  0.64351  1.0000
  H   H68       1.0  0.59168  0.95024  0.27848  1.0000
  H   H69       1.0  0.05331  0.62986  0.47445  1.0000
  H   H70       1.0  0.63027  0.56803  0.40148  1.0000
  H   H71       1.0  0.40866  0.04663  0.69754  1.0000
  H   H72       1.0  0.94036  0.36652  0.49897  1.0000
  C   C151      1.0  0.27117  0.93692  0.84525  1.0000
  C   C152      1.0  0.31951  0.97971  0.92524  1.0000
  C  Sn1       1.0  0.32096  0.90541  0.05904  1.0000
  C  Sn2       1.0  0.27802  0.91633  0.11353  1.0000
  C   C153      1.0  0.22981  0.87322  0.03277  1.0000
  C   C154      1.0  0.22880  0.94765  0.89897  1.0000
  H   H73       1.0  0.26660  0.89545  0.74180  1.0000
  O  Te1       1.0  0.36953  0.94769  0.13750  1.0000
  O  Te2       1.0  0.28326  0.96962  0.24699  1.0000
  H   H74       1.0  0.19136  0.91451  0.83715  1.0000
  Mg  Mg1       1.0  0.35725  0.01346  0.31374  1.0000
  C   C155      1.0  0.74301  0.69801  0.41421  1.0000
  C   C156      1.0  0.75848  0.75627  0.50480  1.0000
  C  Sn3       1.0  0.72693  0.77714  0.63738  1.0000
  C  Sn4       1.0  0.67905  0.73885  0.67979  1.0000
  C   C157      1.0  0.66394  0.68064  0.58848  1.0000
  C   C158      1.0  0.69580  0.66022  0.45601  1.0000
  H   H75       1.0  0.76767  0.68221  0.31179  1.0000
  O  Te3       1.0  0.74296  0.83547  0.72653  1.0000
  O  Te4       1.0  0.64679  0.75856  0.81176  1.0000
  H   H76       1.0  0.68383  0.61511  0.38598  1.0000
  Mg  Mg2       1.0  0.68556  0.84176  0.89591  1.0000
  C   C159      1.0  0.05705  0.33147  0.54769  1.0000
  C   C160      1.0  0.02322  0.33595  0.46943  1.0000
  C  Sn5       1.0  0.97719  0.28843  0.38438  1.0000
  C  Sn6       1.0  0.96490  0.23552  0.37780  1.0000
  C   C161      1.0  0.99898  0.23150  0.45661  1.0000
  C   C162      1.0  0.04495  0.27931  0.54133  1.0000
  H   H77       1.0  0.09260  0.36847  0.61333  1.0000
  O  Te5       1.0  0.94384  0.29364  0.30682  1.0000
  O  Te6       1.0  0.91915  0.18736  0.29371  1.0000
  H   H78       1.0  0.07111  0.27584  0.60201  1.0000
  Mg  Mg3       1.0  0.88614  0.21587  0.20753  1.0000
  C   C163      1.0  0.49067  0.45041  0.85334  1.0000
  C   C164      1.0  0.45466  0.32648  0.01163  1.0000
  C  Sn7       1.0  0.46792  0.37845  0.16987  1.0000
  C  Sn8       1.0  0.51320  0.42717  0.16919  1.0000
  C   C165      1.0  0.54406  0.42265  0.01008  1.0000
  C   C166      1.0  0.53532  0.49845  0.85252  1.0000
  H   H79       1.0  0.48012  0.41002  0.73138  1.0000
  O  Te7       1.0  0.43640  0.38177  0.32687  1.0000
  O  Te8       1.0  0.52734  0.47964  0.32542  1.0000
  H   H80       1.0  0.55941  0.49531  0.72994  1.0000
  Mg  Mg4       1.0  0.47192  0.46269  0.50577  1.0000
  C   C167      1.0  0.05096  0.52651  0.44810  1.0000
  C   C168      1.0  0.01478  0.54395  0.45982  1.0000
  C  Sn9       1.0  0.96331  0.51208  0.49080  1.0000
  C  Sn10      1.0  0.94790  0.46185  0.51040  1.0000
  C   C169      1.0  0.98440  0.44478  0.49859  1.0000
  C   C170      1.0  0.03579  0.47698  0.46750  1.0000
  H   H81       1.0  0.09073  0.55143  0.42415  1.0000
  O  Te9       1.0  0.92766  0.53010  0.50206  1.0000
  O  Te10      1.0  0.89672  0.42921  0.54153  1.0000
  H   H82       1.0  0.06380  0.46349  0.45856  1.0000
  Mg  Mg5       1.0  0.86239  0.47127  0.54605  1.0000
  C   C171      1.0  0.22418  0.05929  0.66303  1.0000
  C   C172      1.0  0.18100  0.02095  0.54383  1.0000
  C  Sn11      1.0  0.17872  0.97070  0.39517  1.0000
  C  Sn12      1.0  0.22051  0.95872  0.36568  1.0000
  C   C173      1.0  0.26353  0.99733  0.48579  1.0000
  C   C174      1.0  0.26541  0.04750  0.63409  1.0000
  H   H83       1.0  0.22563  0.09809  0.77784  1.0000
  O  Te11      1.0  0.13530  0.93287  0.27737  1.0000
  O  Te12      1.0  0.21924  0.90880  0.21821  1.0000
  H   H84       1.0  0.29883  0.07716  0.72643  1.0000
  Mg  Mg6       1.0  0.15164  0.87053  0.09565  1.0000
  C   C175      1.0  0.48725  0.94439  0.31917  1.0000
  C   C176      1.0  0.53473  0.98129  0.41334  1.0000
  C  Sn13      1.0  0.54129  0.03077  0.57580  1.0000
  C  Sn14      1.0  0.49946  0.04342  0.64495  1.0000
  C   C177      1.0  0.45210  0.00621  0.54979  1.0000
  C   C178      1.0  0.44597  0.95683  0.38732  1.0000
  H   H85       1.0  0.48249  0.90617  0.19352  1.0000
  O  Te13      1.0  0.58900  0.06718  0.66812  1.0000
  O  Te14      1.0  0.50496  0.09257  0.80704  1.0000
  H   H86       1.0  0.40919  0.92825  0.31451  1.0000
  Mg  Mg7       1.0  0.07814  0.12894  0.88344  1.0000
  C   C179      1.0  0.95125  0.49507  0.00726  1.0000
  C   C180      1.0  0.00184  0.66613  0.98212  1.0000
  C  Sn15      1.0  0.04697  0.66087  0.94182  1.0000
  C  Sn16      1.0  0.04622  0.61153  0.92644  1.0000
  C   C181      1.0  0.00030  0.56869  0.95171  1.0000
  C   C182      1.0  0.95536  0.57440  0.99205  1.0000
  H   H87       1.0  0.91647  0.49947  0.03837  1.0000
  O  Te15      1.0  0.09231  0.70429  0.91718  1.0000
  O  Te16      1.0  0.09078  0.60517  0.88621  1.0000
  H   H88       1.0  0.91509  0.41304  0.01139  1.0000
  Mg  Mg8       1.0  0.14309  0.67598  0.86454  1.0000
  C   C183      1.0  0.03517  0.71208  0.43599  1.0000
  C   C184      1.0  0.99837  0.67401  0.50856  1.0000
  C  Sn17      1.0  0.95656  0.68220  0.60578  1.0000
  C  Sn18      1.0  0.95160  0.72943  0.63054  1.0000
  C   C185      1.0  0.98862  0.76726  0.55728  1.0000
  C   C186      1.0  0.03031  0.75866  0.46028  1.0000
  H   H89       1.0  0.06742  0.70542  0.36085  1.0000
  O  Te17      1.0  0.92014  0.64376  0.67744  1.0000
  O  Te18      1.0  0.91019  0.73862  0.72706  1.0000
  H   H90       1.0  0.05878  0.78813  0.40400  1.0000
  Mg  Mg9       1.0  0.87055  0.67443  0.79873  1.0000
