data_image0
_chemical_formula_structural       C36H20N6C6H6C30H16N6C6H6C2Sn2C2HTe2HMgC2Sn2C2HTe2HMgC2Sn2C2HTe2HMgC2Sn2C2HTe2HMgC2Sn2C2HTe2HMgC2Sn2C2HTe2HMgC2Sn2C2HTe2HMgC2Sn2C2HTe2HMgC2Sn2C2HTe2HMg
_chemical_formula_sum              "C114 H66 N12 Sn18 Te18 Mg9"
_cell_length_a       21.4902
_cell_length_b       21.489
_cell_length_c       10.6577
_cell_angle_alpha    90.1854
_cell_angle_beta     90.6987
_cell_angle_gamma    119.961

_symmetry_space_group_name_H-M    'P1'
_space_group_IT_number       1

loop_
  _space_group_symop_operation_xyz
  'x, y, z'

loop_
  _atom_site_type_symbol
  _atom_site_label
  _atom_site_symmetry_multiplicity
  _atom_site_fract_x
  _atom_site_fract_y
  _atom_site_fract_z
  _atom_site_occupancy
  C   C1        1.0  0.06309  0.06960  0.33729  1.0000
  C   C2        1.0  0.93164  0.99474  0.33295  1.0000
  C   C3        1.0  0.00657  0.93832  0.33787  1.0000
  C   C4        1.0  0.93787  0.93220  0.33548  1.0000
  C   C5        1.0  0.06924  0.00694  0.33869  1.0000
  C   C6        1.0  0.99433  0.06349  0.33397  1.0000
  C   C7        1.0  0.05184  0.85957  0.24928  1.0000
  C   C8        1.0  0.80637  0.94504  0.24152  1.0000
  C   C9        1.0  0.95355  0.14413  0.23472  1.0000
  C   C10       1.0  0.85731  0.80887  0.24292  1.0000
  C   C11       1.0  0.06034  0.79955  0.25408  1.0000
  C   C12       1.0  0.73819  0.93743  0.24210  1.0000
  C   C13       1.0  0.94423  0.20373  0.23739  1.0000
  C   C14       1.0  0.79716  0.74066  0.24693  1.0000
  C   C15       1.0  0.02791  0.74879  0.34988  1.0000
  C   C16       1.0  0.72084  0.97450  0.33150  1.0000
  C   C17       1.0  0.97072  0.25229  0.33965  1.0000
  C   C18       1.0  0.74797  0.72185  0.34526  1.0000
  C   C19       1.0  0.98911  0.76142  0.44227  1.0000
  C   C20       1.0  0.77342  0.01772  0.42179  1.0000
  C   C21       1.0  0.00599  0.23862  0.43896  1.0000
  C   C22       1.0  0.76231  0.77265  0.44122  1.0000
  C   C23       1.0  0.98232  0.82247  0.43756  1.0000
  C   C24       1.0  0.84089  0.02368  0.42158  1.0000
  C   C25       1.0  0.01375  0.17798  0.43590  1.0000
  C   C26       1.0  0.82368  0.84029  0.43753  1.0000
  C   C27       1.0  0.01310  0.87250  0.34093  1.0000
  C   C28       1.0  0.85926  0.98819  0.33111  1.0000
  C   C29       1.0  0.98770  0.12948  0.33419  1.0000
  C   C30       1.0  0.87213  0.85983  0.33837  1.0000
  C   C31       1.0  0.56961  0.00752  0.37335  1.0000
  C   C32       1.0  0.43233  0.99326  0.39025  1.0000
  C   C33       1.0  0.50810  0.93894  0.38047  1.0000
  C   C34       1.0  0.49402  0.06190  0.38672  1.0000
  C   C35       1.0  0.44056  0.93212  0.39005  1.0000
  C   C36       1.0  0.56166  0.06876  0.37964  1.0000
  H   H1        1.0  0.51515  0.89224  0.37793  1.0000
  H   H2        1.0  0.48705  0.10867  0.38893  1.0000
  H   H3        1.0  0.39298  0.87907  0.39537  1.0000
  H   H4        1.0  0.60949  0.12178  0.37735  1.0000
  H   H5        1.0  0.07580  0.89779  0.17368  1.0000
  H   H6        1.0  0.81865  0.91596  0.17170  1.0000
  H   H7        1.0  0.93335  0.10768  0.15442  1.0000
  H   H8        1.0  0.89400  0.82341  0.16497  1.0000
  H   H9        1.0  0.09068  0.79035  0.18268  1.0000
  H   H10       1.0  0.69780  0.90349  0.17255  1.0000
  H   H11       1.0  0.91754  0.21421  0.15966  1.0000
  H   H12       1.0  0.78638  0.70141  0.17303  1.0000
  H   H13       1.0  0.96679  0.72431  0.51993  1.0000
  H   H14       1.0  0.76005  0.04421  0.49517  1.0000
  H   H15       1.0  0.02459  0.27411  0.52082  1.0000
  H   H16       1.0  0.72648  0.75776  0.52063  1.0000
  H   H17       1.0  0.95302  0.83196  0.51047  1.0000
  H   H18       1.0  0.87985  0.05588  0.49414  1.0000
  H   H19       1.0  0.03884  0.16704  0.51549  1.0000
  H   H20       1.0  0.83469  0.87827  0.51391  1.0000
  N   N1        1.0  0.68870  0.65205  0.34512  1.0000
  N   N2        1.0  0.34916  0.03640  0.36290  1.0000
  N   N3        1.0  0.95772  0.31024  0.34115  1.0000
  N   N4        1.0  0.31350  0.34926  0.34850  1.0000
  N   N5        1.0  0.65073  0.96313  0.33307  1.0000
  N   N6        1.0  0.03723  0.68870  0.35182  1.0000
  C   C37       1.0  0.62621  0.64161  0.37526  1.0000
  C   C38       1.0  0.36010  0.98399  0.38869  1.0000
  C   C39       1.0  0.00875  0.37307  0.37568  1.0000
  C   C40       1.0  0.37748  0.35922  0.36407  1.0000
  C   C41       1.0  0.64106  0.01646  0.35904  1.0000
  C   C42       1.0  0.98279  0.62661  0.37679  1.0000
  H   H21       1.0  0.61691  0.68664  0.39507  1.0000
  H   H22       1.0  0.31558  0.92919  0.40471  1.0000
  H   H23       1.0  0.06335  0.38307  0.39657  1.0000
  H   H24       1.0  0.38758  0.31382  0.36882  1.0000
  H   H25       1.0  0.68652  0.07169  0.36911  1.0000
  H   H26       1.0  0.92873  0.61937  0.38842  1.0000
  C   C43       1.0  0.06290  0.06559  0.83727  1.0000
  C   C44       1.0  0.93147  0.99487  0.83359  1.0000
  C   C45       1.0  0.00186  0.93396  0.83944  1.0000
  C   C46       1.0  0.93441  0.93066  0.83574  1.0000
  C   C47       1.0  0.06625  0.00143  0.84020  1.0000
  C   C48       1.0  0.99544  0.06230  0.83425  1.0000
  C   C49       1.0  0.04534  0.85492  0.74968  1.0000
  C   C50       1.0  0.14399  0.18641  0.74178  1.0000
  C   C51       1.0  0.95003  0.14009  0.74186  1.0000
  C   C52       1.0  0.19043  0.04674  0.75593  1.0000
  C   C53       1.0  0.05490  0.79573  0.75457  1.0000
  C   C54       1.0  0.20388  0.25490  0.74638  1.0000
  C   C55       1.0  0.94335  0.20111  0.74314  1.0000
  C   C56       1.0  0.25888  0.05525  0.76283  1.0000
  C   C57       1.0  0.02252  0.74459  0.84950  1.0000
  C   C58       1.0  0.25325  0.27590  0.84749  1.0000
  C   C59       1.0  0.98009  0.25533  0.83431  1.0000
  C   C60       1.0  0.27660  0.02073  0.85697  1.0000
  C   C61       1.0  0.98120  0.75490  0.93983  1.0000
  C   C62       1.0  0.24033  0.22639  0.94397  1.0000
  C   C63       1.0  0.02200  0.24545  0.92614  1.0000
  C   C64       1.0  0.22372  0.97793  0.94391  1.0000
  C   C65       1.0  0.97362  0.81559  0.93566  1.0000
  C   C66       1.0  0.17938  0.15838  0.93913  1.0000
  C   C67       1.0  0.02668  0.18314  0.92556  1.0000
  C   C68       1.0  0.15592  0.97151  0.93786  1.0000
  C   C69       1.0  0.00591  0.86688  0.84126  1.0000
  C   C70       1.0  0.12990  0.13711  0.83867  1.0000
  C   C71       1.0  0.99115  0.12935  0.83359  1.0000
  C   C72       1.0  0.13779  0.00591  0.84443  1.0000
  H   H27       1.0  0.06941  0.89328  0.67435  1.0000
  H   H28       1.0  0.10704  0.17091  0.66207  1.0000
  H   H29       1.0  0.92203  0.09930  0.66973  1.0000
  H   H30       1.0  0.17763  0.07295  0.68113  1.0000
  H   H31       1.0  0.08613  0.78726  0.68408  1.0000
  H   H32       1.0  0.21422  0.29271  0.67096  1.0000
  H   H33       1.0  0.91086  0.20861  0.67240  1.0000
  H   H34       1.0  0.29918  0.08782  0.69456  1.0000
  H   H35       1.0  0.95738  0.71637  0.01519  1.0000
  H   H36       1.0  0.27682  0.24229  0.02461  1.0000
  H   H37       1.0  0.04861  0.28557  0.00015  1.0000
  H   H38       1.0  0.23702  0.95217  0.01901  1.0000
  H   H39       1.0  0.94250  0.82356  0.00708  1.0000
  H   H40       1.0  0.16912  0.12111  0.01534  1.0000
  H   H41       1.0  0.05821  0.17554  0.99795  1.0000
  H   H42       1.0  0.11630  0.93913  0.00715  1.0000
  N   N7        1.0  0.68096  0.65400  0.84609  1.0000
  N   N8        1.0  0.34722  0.03346  0.86393  1.0000
  N   N9        1.0  0.96974  0.31460  0.83265  1.0000
  N   N10       1.0  0.31114  0.34647  0.84882  1.0000
  N   N11       1.0  0.65475  0.97119  0.83992  1.0000
  N   N12       1.0  0.03537  0.68683  0.85166  1.0000
  C   C73       1.0  0.61744  0.64419  0.86422  1.0000
  C   C74       1.0  0.35862  0.98016  0.87492  1.0000
  C   C75       1.0  0.02250  0.37816  0.85786  1.0000
  C   C76       1.0  0.37408  0.35958  0.88526  1.0000
  C   C77       1.0  0.64317  0.02016  0.88557  1.0000
  C   C78       1.0  0.98236  0.62254  0.86595  1.0000
  H   H43       1.0  0.60709  0.68945  0.86700  1.0000
  H   H44       1.0  0.31430  0.92414  0.87102  1.0000
  H   H45       1.0  0.07766  0.38864  0.87349  1.0000
  H   H46       1.0  0.38508  0.31621  0.90981  1.0000
  H   H47       1.0  0.68733  0.07270  0.91769  1.0000
  H   H48       1.0  0.92653  0.61129  0.87057  1.0000
  C   C79       1.0  0.07086  0.52468  0.38936  1.0000
  C   C80       1.0  0.01631  0.45296  0.39625  1.0000
  C  Sn1       1.0  0.94430  0.43530  0.39278  1.0000
  C  Sn2       1.0  0.92675  0.49057  0.38216  1.0000
  C   C81       1.0  0.98172  0.56215  0.37524  1.0000
  C   C82       1.0  0.05360  0.57922  0.37884  1.0000
  H   H49       1.0  0.12648  0.53789  0.39208  1.0000
  O  Te1       1.0  0.89047  0.36338  0.39981  1.0000
  O  Te2       1.0  0.85522  0.47442  0.37843  1.0000
  H   H50       1.0  0.09582  0.63475  0.37342  1.0000
  Mg  Mg1       1.0  0.80096  0.36841  0.39105  1.0000
  C   C83       1.0  0.56264  0.48819  0.35965  1.0000
  C   C84       1.0  0.56624  0.55485  0.36743  1.0000
  C  Sn3       1.0  0.50389  0.55864  0.38494  1.0000
  C  Sn4       1.0  0.43676  0.49441  0.39486  1.0000
  C   C85       1.0  0.43373  0.42799  0.38704  1.0000
  C   C86       1.0  0.49645  0.42482  0.36947  1.0000
  H   H51       1.0  0.61117  0.48573  0.34612  1.0000
  O  Te3       1.0  0.50845  0.62568  0.39246  1.0000
  O  Te4       1.0  0.37361  0.49665  0.41243  1.0000
  H   H52       1.0  0.49365  0.37320  0.36353  1.0000
  Mg  Mg2       1.0  0.40743  0.60089  0.41681  1.0000
  C   C87       1.0  0.07995  0.52988  0.87591  1.0000
  C   C88       1.0  0.02812  0.45696  0.87559  1.0000
  C  Sn5       1.0  0.95519  0.43549  0.86677  1.0000
  C  Sn6       1.0  0.93392  0.48813  0.85810  1.0000
  C   C89       1.0  0.98619  0.56095  0.85841  1.0000
  C   C90       1.0  0.05902  0.58184  0.86731  1.0000
  H   H53       1.0  0.13631  0.54605  0.88273  1.0000
  O  Te5       1.0  0.90411  0.36240  0.86662  1.0000
  O  Te6       1.0  0.86140  0.46816  0.84914  1.0000
  H   H54       1.0  0.09914  0.63830  0.86748  1.0000
  Mg  Mg3       1.0  0.81188  0.36192  0.85270  1.0000
  C   C91       1.0  0.46545  0.54969  0.86914  1.0000
  C   C92       1.0  0.53823  0.57177  0.88529  1.0000
  C  Sn7       1.0  0.56025  0.52095  0.89854  1.0000
  C  Sn8       1.0  0.50831  0.44669  0.89548  1.0000
  C   C93       1.0  0.43563  0.42515  0.87919  1.0000
  C   C94       1.0  0.41419  0.47646  0.86607  1.0000
  H   H55       1.0  0.44885  0.58938  0.85892  1.0000
  O  Te7       1.0  0.63318  0.54393  0.91464  1.0000
  O  Te8       1.0  0.52884  0.39475  0.90845  1.0000
  H   H56       1.0  0.35784  0.45935  0.85349  1.0000
  Mg  Mg4       1.0  0.63460  0.45274  0.92824  1.0000
  C   C95       1.0  0.24695  0.05759  0.23940  1.0000
  C   C96       1.0  0.27771  0.03853  0.33743  1.0000
  C  Sn9       1.0  0.73637  0.00228  0.44153  1.0000
  C  Sn10      1.0  0.66350  0.98485  0.44731  1.0000
  C   C97       1.0  0.13382  0.00411  0.34872  1.0000
  C   C98       1.0  0.17507  0.04039  0.24501  1.0000
  H   H57       1.0  0.27884  0.08563  0.15912  1.0000
  O  Te9       1.0  0.76796  0.98366  0.53867  1.0000
  O  Te10      1.0  0.62156  0.94862  0.55023  1.0000
  H   H58       1.0  0.15122  0.05510  0.16908  1.0000
  Mg  Mg5       1.0  0.68883  0.93471  0.65919  1.0000
  C   C99       1.0  0.45360  0.92414  0.85947  1.0000
  C   C100      1.0  0.43144  0.97316  0.89116  1.0000
  C  Sn11      1.0  0.98281  0.04449  0.91987  1.0000
  C  Sn12      1.0  0.05709  0.06702  0.91668  1.0000
  C   C101      1.0  0.07871  0.01758  0.88477  1.0000
  C   C102      1.0  0.52685  0.94632  0.85625  1.0000
  H   H59       1.0  0.41396  0.86901  0.83733  1.0000
  O  Te11      1.0  0.95974  0.09276  0.95139  1.0000
  O  Te12      1.0  0.10896  0.13800  0.94491  1.0000
  H   H60       1.0  0.54402  0.90840  0.83163  1.0000
  Mg  Mg6       1.0  0.05087  0.18376  0.98244  1.0000
  C   C103      1.0  0.19972  0.17278  0.44906  1.0000
  C   C104      1.0  0.13968  0.14679  0.36912  1.0000
  C  Sn13      1.0  0.13874  0.18853  0.26967  1.0000
  C  Sn14      1.0  0.19912  0.25754  0.25010  1.0000
  C   C105      1.0  0.25895  0.28304  0.33055  1.0000
  C   C106      1.0  0.25931  0.24084  0.42979  1.0000
  H   H61       1.0  0.20002  0.14012  0.52581  1.0000
  O  Te13      1.0  0.07831  0.16174  0.19072  1.0000
  O  Te14      1.0  0.19962  0.30037  0.15140  1.0000
  H   H62       1.0  0.30582  0.26096  0.49162  1.0000
  Mg  Mg7       1.0  0.10459  0.24027  0.06922  1.0000
  C   C107      1.0  0.79697  0.83174  0.94264  1.0000
  C   C108      1.0  0.85594  0.85575  0.86384  1.0000
  C  Sn15      1.0  0.85507  0.81200  0.76579  1.0000
  C  Sn16      1.0  0.79397  0.74297  0.74649  1.0000
  C   C109      1.0  0.73523  0.71946  0.82579  1.0000
  C   C110      1.0  0.73667  0.76367  0.92364  1.0000
  H   H63       1.0  0.78894  0.85980  0.01830  1.0000
  O  Te15      1.0  0.91445  0.83681  0.68797  1.0000
  O  Te16      1.0  0.79167  0.69815  0.64919  1.0000
  H   H64       1.0  0.69099  0.74509  0.98458  1.0000
  Mg  Mg8       1.0  0.88580  0.75600  0.56817  1.0000
  C   C111      1.0  0.79356  0.95382  0.71762  1.0000
  C   C112      1.0  0.85088  0.98680  0.80346  1.0000
  C  Sn17      1.0  0.34336  0.01492  0.91646  1.0000
  C  Sn18      1.0  0.27652  0.00982  0.94378  1.0000
  C   C113      1.0  0.71887  0.97668  0.85732  1.0000
  C   C114      1.0  0.72761  0.94875  0.74452  1.0000
  H   H65       1.0  0.80031  0.93217  0.63037  1.0000
  O  Te17      1.0  0.39206  0.04155  0.00115  1.0000
  O  Te18      1.0  0.25778  0.03129  0.05603  1.0000
  H   H66       1.0  0.68321  0.92318  0.67811  1.0000
  Mg  Mg9       1.0  0.35257  0.07108  0.14151  1.0000
