data_image0
_chemical_formula_structural       C30H16N6C6H6C36H20N6C6H6SnCSn2CSnTe4Mg2SnCSn2CSnTe4Mg2SnCSn2CSnTe4Mg2SnCSn2CSnTe4Mg2SnCSn2CSnTe4Mg2SnCSn2CSnTe4Mg2SnCSn2CSnTe4Mg2SnCSn2CSnTe4Mg2SnCSn2CSnTe4Mg2
_chemical_formula_sum              "C96 H48 N12 Sn36 Te36 Mg18"
_cell_length_a       21.4902
_cell_length_b       21.489
_cell_length_c       10.6577
_cell_angle_alpha    90.1854
_cell_angle_beta     90.6987
_cell_angle_gamma    119.961

_symmetry_space_group_name_H-M    'P1'
_space_group_IT_number       1

loop_
  _space_group_symop_operation_xyz
  'x, y, z'

loop_
  _atom_site_type_symbol
  _atom_site_label
  _atom_site_symmetry_multiplicity
  _atom_site_fract_x
  _atom_site_fract_y
  _atom_site_fract_z
  _atom_site_occupancy
  C   C1        1.0  0.06309  0.06960  0.33729  1.0000
  C   C2        1.0  0.93164  0.99474  0.33295  1.0000
  C   C3        1.0  0.00657  0.93832  0.33787  1.0000
  C   C4        1.0  0.93787  0.93220  0.33548  1.0000
  C   C5        1.0  0.06924  0.00694  0.33869  1.0000
  C   C6        1.0  0.99433  0.06349  0.33397  1.0000
  C   C7        1.0  0.95355  0.14413  0.23472  1.0000
  C   C8        1.0  0.85731  0.80887  0.24292  1.0000
  C   C9        1.0  0.19254  0.04834  0.25067  1.0000
  C   C10       1.0  0.94423  0.20373  0.23739  1.0000
  C   C11       1.0  0.79716  0.74066  0.24693  1.0000
  C   C12       1.0  0.26053  0.05573  0.25889  1.0000
  C   C13       1.0  0.97072  0.25229  0.33965  1.0000
  C   C14       1.0  0.74797  0.72185  0.34526  1.0000
  C   C15       1.0  0.27926  0.02585  0.35976  1.0000
  C   C16       1.0  0.00599  0.23862  0.43896  1.0000
  C   C17       1.0  0.76231  0.77265  0.44122  1.0000
  C   C18       1.0  0.22838  0.99005  0.45368  1.0000
  C   C19       1.0  0.01375  0.17798  0.43590  1.0000
  C   C20       1.0  0.82368  0.84029  0.43753  1.0000
  C   C21       1.0  0.16099  0.98447  0.44574  1.0000
  C   C22       1.0  0.98770  0.12948  0.33419  1.0000
  C   C23       1.0  0.87213  0.85983  0.33837  1.0000
  C   C24       1.0  0.14147  0.01294  0.34423  1.0000
  C   C25       1.0  0.56961  0.00752  0.37335  1.0000
  C   C26       1.0  0.43233  0.99326  0.39025  1.0000
  C   C27       1.0  0.50810  0.93894  0.38047  1.0000
  C   C28       1.0  0.49402  0.06190  0.38672  1.0000
  C   C29       1.0  0.44056  0.93212  0.39005  1.0000
  C   C30       1.0  0.56166  0.06876  0.37964  1.0000
  H   H1        1.0  0.51515  0.89224  0.37793  1.0000
  H   H2        1.0  0.48705  0.10867  0.38893  1.0000
  H   H3        1.0  0.39298  0.87907  0.39537  1.0000
  H   H4        1.0  0.60949  0.12178  0.37735  1.0000
  H   H5        1.0  0.93335  0.10768  0.15442  1.0000
  H   H6        1.0  0.89400  0.82341  0.16497  1.0000
  H   H7        1.0  0.17887  0.07076  0.17077  1.0000
  H   H8        1.0  0.91754  0.21421  0.15966  1.0000
  H   H9        1.0  0.78638  0.70141  0.17303  1.0000
  H   H10       1.0  0.29979  0.08321  0.18618  1.0000
  H   H11       1.0  0.02459  0.27411  0.52082  1.0000
  H   H12       1.0  0.72648  0.75776  0.52063  1.0000
  H   H13       1.0  0.24262  0.96884  0.53471  1.0000
  H   H14       1.0  0.03884  0.16704  0.51549  1.0000
  H   H15       1.0  0.83469  0.87827  0.51391  1.0000
  H   H16       1.0  0.12274  0.95810  0.52034  1.0000
  N   N1        1.0  0.68870  0.65205  0.34512  1.0000
  N   N2        1.0  0.34916  0.03640  0.36290  1.0000
  N   N3        1.0  0.95772  0.31024  0.34115  1.0000
  N   N4        1.0  0.31350  0.34926  0.34850  1.0000
  N   N5        1.0  0.65073  0.96313  0.33307  1.0000
  N   N6        1.0  0.03723  0.68870  0.35182  1.0000
  C   C31       1.0  0.62621  0.64161  0.37526  1.0000
  C   C32       1.0  0.36010  0.98399  0.38869  1.0000
  C   C33       1.0  0.00875  0.37307  0.37568  1.0000
  C   C34       1.0  0.37748  0.35922  0.36407  1.0000
  C   C35       1.0  0.64106  0.01646  0.35904  1.0000
  C   C36       1.0  0.98279  0.62661  0.37679  1.0000
  H   H17       1.0  0.61691  0.68664  0.39507  1.0000
  H   H18       1.0  0.31558  0.92919  0.40471  1.0000
  H   H19       1.0  0.06335  0.38307  0.39657  1.0000
  H   H20       1.0  0.38758  0.31382  0.36882  1.0000
  H   H21       1.0  0.68652  0.07169  0.36911  1.0000
  H   H22       1.0  0.92873  0.61937  0.38842  1.0000
  C   C37       1.0  0.06290  0.06559  0.83727  1.0000
  C   C38       1.0  0.93147  0.99487  0.83359  1.0000
  C   C39       1.0  0.00186  0.93396  0.83944  1.0000
  C   C40       1.0  0.93441  0.93066  0.83574  1.0000
  C   C41       1.0  0.06625  0.00143  0.84020  1.0000
  C   C42       1.0  0.99544  0.06230  0.83425  1.0000
  C   C43       1.0  0.04534  0.85492  0.74968  1.0000
  C   C44       1.0  0.81192  0.96126  0.73204  1.0000
  C   C45       1.0  0.85284  0.80687  0.74492  1.0000
  C   C46       1.0  0.19043  0.04674  0.75593  1.0000
  C   C47       1.0  0.05490  0.79573  0.75457  1.0000
  C   C48       1.0  0.74455  0.95541  0.73546  1.0000
  C   C49       1.0  0.79151  0.73950  0.74890  1.0000
  C   C50       1.0  0.25888  0.05525  0.76283  1.0000
  C   C51       1.0  0.02252  0.74459  0.84950  1.0000
  C   C52       1.0  0.72431  0.98122  0.83982  1.0000
  C   C53       1.0  0.74006  0.72359  0.84217  1.0000
  C   C54       1.0  0.27660  0.02073  0.85697  1.0000
  C   C55       1.0  0.98120  0.75490  0.93983  1.0000
  C   C56       1.0  0.77304  0.01181  0.94149  1.0000
  C   C57       1.0  0.75247  0.77679  0.93221  1.0000
  C   C58       1.0  0.22372  0.97793  0.94391  1.0000
  C   C59       1.0  0.97362  0.81559  0.93566  1.0000
  C   C60       1.0  0.83991  0.01644  0.93758  1.0000
  C   C61       1.0  0.81512  0.84338  0.92893  1.0000
  C   C62       1.0  0.15592  0.97151  0.93786  1.0000
  C   C63       1.0  0.00591  0.86688  0.84126  1.0000
  C   C64       1.0  0.86050  0.99134  0.83345  1.0000
  C   C65       1.0  0.86659  0.85991  0.83582  1.0000
  C   C66       1.0  0.13779  0.00591  0.84443  1.0000
  C   C67       1.0  0.99313  0.56066  0.86994  1.0000
  C   C68       1.0  0.01189  0.44009  0.86388  1.0000
  C   C69       1.0  0.06246  0.56945  0.87941  1.0000
  C   C70       1.0  0.94249  0.43128  0.85559  1.0000
  C   C71       1.0  0.07158  0.50988  0.87722  1.0000
  C   C72       1.0  0.93337  0.49077  0.85958  1.0000
  H   H23       1.0  0.10790  0.62373  0.88781  1.0000
  H   H24       1.0  0.89698  0.37713  0.84517  1.0000
  H   H25       1.0  0.12523  0.51670  0.88442  1.0000
  H   H26       1.0  0.87969  0.48386  0.85298  1.0000
  H   H27       1.0  0.06941  0.89328  0.67435  1.0000
  H   H28       1.0  0.82711  0.94177  0.65026  1.0000
  H   H29       1.0  0.89122  0.81853  0.67069  1.0000
  H   H30       1.0  0.17763  0.07295  0.68113  1.0000
  H   H31       1.0  0.08613  0.78726  0.68408  1.0000
  H   H32       1.0  0.70677  0.93150  0.65724  1.0000
  H   H33       1.0  0.78176  0.69852  0.67900  1.0000
  H   H34       1.0  0.29918  0.08782  0.69456  1.0000
  H   H35       1.0  0.95738  0.71637  0.01519  1.0000
  H   H36       1.0  0.75703  0.02864  0.02562  1.0000
  H   H37       1.0  0.71413  0.76448  0.00702  1.0000
  H   H38       1.0  0.23702  0.95217  0.01901  1.0000
  H   H39       1.0  0.94250  0.82356  0.00708  1.0000
  H   H40       1.0  0.87602  0.03761  0.01850  1.0000
  H   H41       1.0  0.82470  0.88341  0.00044  1.0000
  H   H42       1.0  0.11630  0.93913  0.00715  1.0000
  N   N7        1.0  0.68096  0.65400  0.84609  1.0000
  N   N8        1.0  0.34722  0.03346  0.86393  1.0000
  N   N9        1.0  0.96974  0.31460  0.83265  1.0000
  N   N10       1.0  0.31114  0.34647  0.84882  1.0000
  N   N11       1.0  0.65475  0.97119  0.83992  1.0000
  N   N12       1.0  0.03537  0.68683  0.85166  1.0000
  C   C73       1.0  0.61744  0.64419  0.86422  1.0000
  C   C74       1.0  0.35862  0.98016  0.87492  1.0000
  C   C75       1.0  0.02250  0.37816  0.85786  1.0000
  C   C76       1.0  0.37408  0.35958  0.88526  1.0000
  C   C77       1.0  0.64317  0.02016  0.88557  1.0000
  C   C78       1.0  0.98236  0.62254  0.86595  1.0000
  H   H43       1.0  0.60709  0.68945  0.86700  1.0000
  H   H44       1.0  0.31430  0.92414  0.87102  1.0000
  H   H45       1.0  0.07766  0.38864  0.87349  1.0000
  H   H46       1.0  0.38508  0.31621  0.90981  1.0000
  H   H47       1.0  0.68733  0.07270  0.91769  1.0000
  H   H48       1.0  0.92653  0.61129  0.87057  1.0000
  C  Sn1       1.0  0.01118  0.18810  0.95532  1.0000
  C   C79       1.0  0.98103  0.13098  0.86917  1.0000
  C  Sn2       1.0  0.95369  0.13818  0.75396  1.0000
  C  Sn3       1.0  0.95659  0.20385  0.72419  1.0000
  C   C80       1.0  0.98674  0.26092  0.81029  1.0000
  C  Sn4       1.0  0.01408  0.25377  0.92555  1.0000
  O  Te1       1.0  0.02907  0.17354  0.06993  1.0000
  O  Te2       1.0  0.92378  0.08032  0.66937  1.0000
  O  Te3       1.0  0.92954  0.21220  0.60947  1.0000
  O  Te4       1.0  0.03486  0.30542  0.01009  1.0000
  Mg  Mg1       1.0  0.89408  0.11796  0.52527  1.0000
  Mg  Mg2       1.0  0.06461  0.26786  0.15419  1.0000
  C  Sn5       1.0  0.16239  0.20166  0.22060  1.0000
  C   C81       1.0  0.14214  0.14525  0.30475  1.0000
  C  Sn6       1.0  0.17568  0.15761  0.42257  1.0000
  C  Sn7       1.0  0.23057  0.22784  0.45704  1.0000
  C   C82       1.0  0.25078  0.28421  0.37292  1.0000
  C  Sn8       1.0  0.21728  0.27189  0.25507  1.0000
  O  Te5       1.0  0.12812  0.18807  0.10331  1.0000
  O  Te6       1.0  0.15454  0.10035  0.50508  1.0000
  O  Te7       1.0  0.26483  0.24140  0.57443  1.0000
  O  Te8       1.0  0.23839  0.32910  0.17259  1.0000
  Mg  Mg3       1.0  0.21720  0.14589  0.65425  1.0000
  Mg  Mg4       1.0  0.17574  0.28364  0.02343  1.0000
  C  Sn9       1.0  0.55532  0.49335  0.85507  1.0000
  C   C83       1.0  0.55550  0.55825  0.84475  1.0000
  C  Sn10      1.0  0.49349  0.56148  0.86964  1.0000
  C  Sn11      1.0  0.43000  0.49853  0.90568  1.0000
  C   C84       1.0  0.42985  0.43368  0.91601  1.0000
  C  Sn12      1.0  0.49183  0.43040  0.89111  1.0000
  O  Te9       1.0  0.61792  0.49137  0.82974  1.0000
  O  Te10      1.0  0.49497  0.62698  0.85865  1.0000
  O  Te11      1.0  0.36738  0.50056  0.93101  1.0000
  O  Te12      1.0  0.49038  0.36496  0.90211  1.0000
  Mg  Mg5       1.0  0.39614  0.60240  0.90311  1.0000
  Mg  Mg6       1.0  0.58918  0.38948  0.85774  1.0000
  C  Sn13      1.0  0.74423  0.91858  0.25757  1.0000
  C   C85       1.0  0.71832  0.95153  0.33828  1.0000
  C  Sn14      1.0  0.26639  0.00999  0.41330  1.0000
  C  Sn15      1.0  0.34131  0.03609  0.40747  1.0000
  C   C86       1.0  0.36719  0.00316  0.32679  1.0000
  C  Sn16      1.0  0.81916  0.94468  0.25175  1.0000
  O  Te13      1.0  0.69581  0.86021  0.18342  1.0000
  O  Te14      1.0  0.23920  0.04203  0.49329  1.0000
  O  Te15      1.0  0.38973  0.09450  0.48171  1.0000
  O  Te16      1.0  0.84631  0.91266  0.17178  1.0000
  Mg  Mg7       1.0  0.32666  0.12009  0.57576  1.0000
  Mg  Mg8       1.0  0.75891  0.83462  0.08922  1.0000
  C  Sn17      1.0  0.92199  0.47663  0.42025  1.0000
  C   C87       1.0  0.97755  0.54810  0.42417  1.0000
  C  Sn18      1.0  0.04776  0.56547  0.39653  1.0000
  C  Sn19      1.0  0.06273  0.51025  0.36424  1.0000
  C   C88       1.0  0.00719  0.43883  0.36031  1.0000
  C  Sn20      1.0  0.93697  0.42141  0.38795  1.0000
  O  Te17      1.0  0.85221  0.46051  0.44822  1.0000
  O  Te18      1.0  0.10242  0.63731  0.40111  1.0000
  O  Te19      1.0  0.13259  0.52643  0.33626  1.0000
  O  Te20      1.0  0.88233  0.34963  0.38337  1.0000
  Mg  Mg9       1.0  0.18879  0.63224  0.35522  1.0000
  Mg  Mg10      1.0  0.79594  0.35463  0.42917  1.0000
  C  Sn21      1.0  0.07965  0.82510  0.26605  1.0000
  C   C89       1.0  0.05161  0.76994  0.35394  1.0000
  C  Sn22      1.0  0.99680  0.76161  0.43340  1.0000
  C  Sn23      1.0  0.96941  0.80939  0.42478  1.0000
  C   C90       1.0  0.99744  0.86450  0.33693  1.0000
  C  Sn24      1.0  0.05226  0.87287  0.25744  1.0000
  O  Te21      1.0  0.13443  0.83242  0.18757  1.0000
  O  Te22      1.0  0.96964  0.70608  0.52054  1.0000
  O  Te23      1.0  0.91459  0.80203  0.50337  1.0000
  O  Te24      1.0  0.07941  0.92836  0.17033  1.0000
  Mg  Mg11      1.0  0.89514  0.71804  0.60680  1.0000
  Mg  Mg12      1.0  0.15387  0.91642  0.08398  1.0000
  C  Sn25      1.0  0.18228  0.17925  0.96644  1.0000
  C   C91       1.0  0.12974  0.14908  0.87162  1.0000
  C  Sn26      1.0  0.14197  0.18082  0.75359  1.0000
  C  Sn27      1.0  0.20810  0.24401  0.72980  1.0000
  C   C92       1.0  0.26060  0.27415  0.82457  1.0000
  C  Sn28      1.0  0.24841  0.24245  0.94265  1.0000
  O  Te25      1.0  0.15978  0.14045  0.08374  1.0000
  O  Te26      1.0  0.08862  0.14967  0.66030  1.0000
  O  Te27      1.0  0.22144  0.27665  0.61239  1.0000
  O  Te28      1.0  0.29259  0.26739  0.03590  1.0000
  Mg  Mg13      1.0  0.13217  0.21402  0.51568  1.0000
  Mg  Mg14      1.0  0.24911  0.20307  0.18052  1.0000
  C  Sn29      1.0  0.48030  0.54606  0.43560  1.0000
  C   C93       1.0  0.55197  0.56478  0.41909  1.0000
  C  Sn30      1.0  0.56898  0.51568  0.36619  1.0000
  C  Sn31      1.0  0.51320  0.44644  0.32893  1.0000
  C   C94       1.0  0.44158  0.42776  0.34542  1.0000
  C  Sn32      1.0  0.42452  0.47682  0.39834  1.0000
  O  Te29      1.0  0.46454  0.59600  0.48867  1.0000
  O  Te30      1.0  0.64103  0.53561  0.35067  1.0000
  O  Te31      1.0  0.52902  0.39649  0.27583  1.0000
  O  Te32      1.0  0.35253  0.45692  0.41384  1.0000
  Mg  Mg15      1.0  0.63530  0.44885  0.27389  1.0000
  Mg  Mg16      1.0  0.35818  0.54365  0.49055  1.0000
  C  Sn33      1.0  0.54496  0.06623  0.95604  1.0000
  C   C95       1.0  0.56536  0.01481  0.93394  1.0000
  C  Sn34      1.0  0.01698  0.94940  0.87577  1.0000
  C  Sn35      1.0  0.94739  0.93509  0.83885  1.0000
  C   C96       1.0  0.92702  0.98649  0.86093  1.0000
  C  Sn36      1.0  0.47536  0.05192  0.91912  1.0000
  O  Te33      1.0  0.58445  0.12509  0.01432  1.0000
  O  Te34      1.0  0.03860  0.89883  0.85471  1.0000
  O  Te35      1.0  0.89877  0.87000  0.78053  1.0000
  O  Te36      1.0  0.45379  0.10247  0.94016  1.0000
  Mg  Mg17      1.0  0.95320  0.81821  0.77210  1.0000
  Mg  Mg18      1.0  0.53003  0.17697  0.02270  1.0000
