data_image0
_chemical_formula_structural       C42H12N6C6H6C42H12N6C6H6C2Sn2C2HTe2HMgC2Sn2C2HTe2HMgC2Sn2C2HTe2HMgC2Sn2C2HTe2HMgC2Sn2C2HTe2HMgC2Sn2C2HTe2HMgC2Sn2C2HTe2HMgC2Sn2C2HTe2HMgC2Sn2C2HTe2HMgC2Sn2C2HTe2HMgC2Sn2C2HTe2HMgC2Sn2C2HTe2HMgC2Sn2C2HTe2HMgC2Sn2C2HTe2HMgC2Sn2C2HTe2HMgC2Sn2C2HTe2HMgC2Sn2C2HTe2HMgC2Sn2C2HTe2HMg
_chemical_formula_sum              "C168 H72 N12 Sn36 Te36 Mg18"
_cell_length_a       30.1318
_cell_length_b       30.0815
_cell_length_c       8.03603
_cell_angle_alpha    118.036
_cell_angle_beta     77.2101
_cell_angle_gamma    120.012

_symmetry_space_group_name_H-M    'P1'
_space_group_IT_number       1

loop_
  _space_group_symop_operation_xyz
  'x, y, z'

loop_
  _atom_site_type_symbol
  _atom_site_label
  _atom_site_symmetry_multiplicity
  _atom_site_fract_x
  _atom_site_fract_y
  _atom_site_fract_z
  _atom_site_occupancy
  C   C1        1.0  0.04675  0.00023  0.01562  1.0000
  C   C2        1.0  0.99990  0.04459  0.99079  1.0000
  C   C3        1.0  0.95233  0.95275  0.01151  1.0000
  C   C4        1.0  0.95257  0.99808  0.99555  1.0000
  C   C5        1.0  0.99944  0.95392  0.02210  1.0000
  C   C6        1.0  0.04702  0.04575  0.00133  1.0000
  C   C7        1.0  0.09435  0.00089  0.02290  1.0000
  C   C8        1.0  0.00018  0.09014  0.97305  1.0000
  C   C9        1.0  0.90450  0.90566  0.01593  1.0000
  C   C10       1.0  0.90506  0.99706  0.98435  1.0000
  C   C11       1.0  0.99930  0.90823  0.03833  1.0000
  C   C12       1.0  0.09489  0.09294  0.99754  1.0000
  C   C13       1.0  0.04618  0.90815  0.04420  1.0000
  C   C14       1.0  0.09559  0.13901  0.98539  1.0000
  C   C15       1.0  0.85744  0.95063  0.98897  1.0000
  C   C16       1.0  0.95343  0.08957  0.96062  1.0000
  C   C17       1.0  0.90380  0.85990  0.03072  1.0000
  C   C18       1.0  0.14196  0.04727  0.01795  1.0000
  C   C19       1.0  0.09456  0.95491  0.03290  1.0000
  C   C20       1.0  0.04738  0.13671  0.96744  1.0000
  C   C21       1.0  0.85719  0.90435  0.00618  1.0000
  C   C22       1.0  0.90495  0.04257  0.97023  1.0000
  C   C23       1.0  0.95213  0.86182  0.04587  1.0000
  C   C24       1.0  0.14226  0.09408  0.00487  1.0000
  C   C25       1.0  0.04485  0.86232  0.05473  1.0000
  C   C26       1.0  0.14273  0.18555  0.98969  1.0000
  C   C27       1.0  0.81166  0.95062  0.97836  1.0000
  C   C28       1.0  0.95496  0.13514  0.94684  1.0000
  C   C29       1.0  0.85655  0.81402  0.03110  1.0000
  C   C30       1.0  0.18776  0.04656  0.02284  1.0000
  C   C31       1.0  0.18820  0.00040  0.02281  1.0000
  C   C32       1.0  0.00119  0.18131  0.94291  1.0000
  C   C33       1.0  0.81001  0.81305  0.02558  1.0000
  C   C34       1.0  0.81118  0.99586  0.97139  1.0000
  C   C35       1.0  0.99878  0.81626  0.06017  1.0000
  C   C36       1.0  0.18929  0.18613  0.99122  1.0000
  C   C37       1.0  0.14142  0.95516  0.02849  1.0000
  C   C38       1.0  0.04666  0.17985  0.94636  1.0000
  C   C39       1.0  0.81122  0.85865  0.01495  1.0000
  C   C40       1.0  0.85801  0.04134  0.96730  1.0000
  C   C41       1.0  0.95306  0.81763  0.05956  1.0000
  C   C42       1.0  0.18821  0.13975  0.99561  1.0000
  H   H1        1.0  0.14384  0.22136  0.98345  1.0000
  H   H2        1.0  0.77509  0.91594  0.98376  1.0000
  H   H3        1.0  0.08048  0.86238  0.06105  1.0000
  H   H4        1.0  0.85519  0.77931  0.04595  1.0000
  H   H5        1.0  0.22431  0.08143  0.01833  1.0000
  H   H6        1.0  0.91947  0.13568  0.94283  1.0000
  H   H7        1.0  0.22460  0.14066  0.99650  1.0000
  H   H8        1.0  0.85718  0.07549  0.95580  1.0000
  H   H9        1.0  0.91720  0.78163  0.06121  1.0000
  H   H10       1.0  0.77484  0.85700  0.00866  1.0000
  H   H11       1.0  0.14245  0.92051  0.03555  1.0000
  H   H12       1.0  0.08253  0.21351  0.93075  1.0000
  N   N1        1.0  0.38179  0.36592  0.94705  1.0000
  N   N2        1.0  0.62529  0.00979  0.04496  1.0000
  N   N3        1.0  0.98172  0.61172  0.00060  1.0000
  N   N4        1.0  0.61885  0.63761  0.10498  1.0000
  N   N5        1.0  0.37319  0.98264  0.92635  1.0000
  N   N6        1.0  0.02115  0.38238  0.96056  1.0000
  C   C43       1.0  0.40309  0.41665  0.07949  1.0000
  C   C44       1.0  0.59103  0.98247  0.91373  1.0000
  C   C45       1.0  0.01850  0.59849  0.96825  1.0000
  C   C46       1.0  0.59720  0.58627  0.97616  1.0000
  C   C47       1.0  0.40888  0.01041  0.05265  1.0000
  C   C48       1.0  0.98472  0.39547  0.98457  1.0000
  H   H13       1.0  0.38630  0.42939  0.22002  1.0000
  H   H14       1.0  0.59547  0.95373  0.76982  1.0000
  H   H15       1.0  0.05846  0.62648  0.94824  1.0000
  H   H16       1.0  0.61403  0.57227  0.83646  1.0000
  H   H17       1.0  0.40660  0.04108  0.19584  1.0000
  H   H18       1.0  0.94552  0.36986  0.01926  1.0000
  C   C49       1.0  0.04761  0.00275  0.51395  1.0000
  C   C50       1.0  0.00142  0.04808  0.49042  1.0000
  C   C51       1.0  0.95310  0.95592  0.50865  1.0000
  C   C52       1.0  0.95382  0.00177  0.49473  1.0000
  C   C53       1.0  0.99999  0.95643  0.51829  1.0000
  C   C54       1.0  0.04830  0.04862  0.50042  1.0000
  C   C55       1.0  0.09493  0.00281  0.52160  1.0000
  C   C56       1.0  0.00216  0.09409  0.47427  1.0000
  C   C57       1.0  0.90497  0.90912  0.51329  1.0000
  C   C58       1.0  0.90646  0.00155  0.48634  1.0000
  C   C59       1.0  0.99929  0.91046  0.53468  1.0000
  C   C60       1.0  0.09640  0.09569  0.49752  1.0000
  C   C61       1.0  0.04583  0.91001  0.54274  1.0000
  C   C62       1.0  0.09760  0.14227  0.48686  1.0000
  C   C63       1.0  0.85857  0.95537  0.49103  1.0000
  C   C64       1.0  0.95557  0.09399  0.46254  1.0000
  C   C65       1.0  0.90382  0.86322  0.52846  1.0000
  C   C66       1.0  0.14281  0.04893  0.51670  1.0000
  C   C67       1.0  0.09453  0.95636  0.53038  1.0000
  C   C68       1.0  0.04958  0.14068  0.47009  1.0000
  C   C69       1.0  0.85785  0.90846  0.50537  1.0000
  C   C70       1.0  0.90683  0.04777  0.47564  1.0000
  C   C71       1.0  0.95182  0.86453  0.54323  1.0000
  C   C72       1.0  0.14347  0.09620  0.50532  1.0000
  C   C73       1.0  0.04388  0.86456  0.55839  1.0000
  C   C74       1.0  0.14506  0.18863  0.49178  1.0000
  C   C75       1.0  0.81295  0.95617  0.48382  1.0000
  C   C76       1.0  0.95752  0.13919  0.44514  1.0000
  C   C77       1.0  0.85640  0.81791  0.53115  1.0000
  C   C78       1.0  0.18843  0.04756  0.52011  1.0000
  C   C79       1.0  0.18820  0.00083  0.51829  1.0000
  C   C80       1.0  0.00391  0.18573  0.44460  1.0000
  C   C81       1.0  0.81012  0.81753  0.52677  1.0000
  C   C82       1.0  0.81303  0.00240  0.48248  1.0000
  C   C83       1.0  0.99739  0.81875  0.56336  1.0000
  C   C84       1.0  0.19124  0.18856  0.49433  1.0000
  C   C85       1.0  0.14116  0.95580  0.52345  1.0000
  C   C86       1.0  0.04922  0.18476  0.45389  1.0000
  C   C87       1.0  0.81161  0.86324  0.51607  1.0000
  C   C88       1.0  0.86008  0.04783  0.47933  1.0000
  C   C89       1.0  0.95208  0.82047  0.56001  1.0000
  C   C90       1.0  0.18968  0.14196  0.49856  1.0000
  H   H19       1.0  0.14676  0.22458  0.48439  1.0000
  H   H20       1.0  0.77616  0.92127  0.48679  1.0000
  H   H21       1.0  0.07928  0.86487  0.56976  1.0000
  H   H22       1.0  0.85466  0.78338  0.54842  1.0000
  H   H23       1.0  0.22514  0.08210  0.51449  1.0000
  H   H24       1.0  0.92206  0.13908  0.43615  1.0000
  H   H25       1.0  0.22593  0.14292  0.50216  1.0000
  H   H26       1.0  0.85942  0.08271  0.47252  1.0000
  H   H27       1.0  0.91600  0.78517  0.56489  1.0000
  H   H28       1.0  0.77537  0.86230  0.51271  1.0000
  H   H29       1.0  0.14172  0.92034  0.52607  1.0000
  H   H30       1.0  0.08533  0.21952  0.44634  1.0000
  N   N7        1.0  0.38727  0.36563  0.45952  1.0000
  N   N8        1.0  0.62668  0.01473  0.54237  1.0000
  N   N9        1.0  0.97586  0.61210  0.50303  1.0000
  N   N10       1.0  0.61825  0.63901  0.58599  1.0000
  N   N11       1.0  0.37239  0.98241  0.43605  1.0000
  N   N12       1.0  0.01808  0.38530  0.46967  1.0000
  C   C91       1.0  0.40160  0.41949  0.55009  1.0000
  C   C92       1.0  0.59029  0.98344  0.41657  1.0000
  C   C93       1.0  0.01298  0.60025  0.48277  1.0000
  C   C94       1.0  0.60483  0.58530  0.49720  1.0000
  C   C95       1.0  0.40915  0.01277  0.55989  1.0000
  C   C96       1.0  0.98023  0.39528  0.48127  1.0000
  H   H31       1.0  0.37626  0.43732  0.64351  1.0000
  H   H32       1.0  0.59168  0.95024  0.27848  1.0000
  H   H33       1.0  0.05331  0.62986  0.47445  1.0000
  H   H34       1.0  0.63027  0.56803  0.40148  1.0000
  H   H35       1.0  0.40866  0.04663  0.69754  1.0000
  H   H36       1.0  0.94036  0.36652  0.49897  1.0000
  C   C97       1.0  0.05692  0.32703  0.04571  1.0000
  C   C98       1.0  0.02941  0.46068  0.96493  1.0000
  C  Sn1       1.0  0.98279  0.41420  0.88081  1.0000
  C  Sn2       1.0  0.96844  0.36114  0.87779  1.0000
  C   C99       1.0  0.00109  0.35593  0.95911  1.0000
  C   C100      1.0  0.04278  0.27471  0.04285  1.0000
  H   H37       1.0  0.09293  0.36323  0.11060  1.0000
  O  Te1       1.0  0.95090  0.42058  0.80069  1.0000
  O  Te2       1.0  0.92206  0.31399  0.79471  1.0000
  H   H38       1.0  0.06783  0.27033  0.10550  1.0000
  Mg  Mg1       1.0  0.89160  0.34390  0.70408  1.0000
  C   C101      1.0  0.68492  0.75050  0.19253  1.0000
  C   C102      1.0  0.66725  0.69186  0.09690  1.0000
  C  Sn3       1.0  0.70377  0.79780  0.97040  1.0000
  C  Sn4       1.0  0.75400  0.83523  0.93941  1.0000
  C   C103      1.0  0.76645  0.76582  0.03588  1.0000
  C   C104      1.0  0.73448  0.78745  0.16210  1.0000
  H   H39       1.0  0.66020  0.76724  0.29027  1.0000
  O  Te3       1.0  0.68550  0.73910  0.87598  1.0000
  O  Te4       1.0  0.78642  0.81432  0.81381  1.0000
  H   H40       1.0  0.74818  0.83286  0.23621  1.0000
  Mg  Mg2       1.0  0.74407  0.73106  0.71869  1.0000
  C   C105      1.0  0.24712  0.93962  0.85191  1.0000
  C   C106      1.0  0.23542  0.98328  0.98235  1.0000
  C  Sn5       1.0  0.26863  0.90636  0.10364  1.0000
  C  Sn6       1.0  0.31934  0.91377  0.09379  1.0000
  C   C107      1.0  0.33554  0.99786  0.96270  1.0000
  C   C108      1.0  0.29713  0.94690  0.84204  1.0000
  H   H41       1.0  0.21740  0.90020  0.75847  1.0000
  O  Te5       1.0  0.25628  0.94953  0.23318  1.0000
  O  Te6       1.0  0.35815  0.96441  0.21329  1.0000
  H   H42       1.0  0.30620  0.91312  0.74098  1.0000
  Mg  Mg3       1.0  0.32239  0.01075  0.36607  1.0000
  C   C109      1.0  0.03939  0.71165  0.93270  1.0000
  C   C110      1.0  0.99875  0.54584  0.00802  1.0000
  C  Sn7       1.0  0.95659  0.55319  0.10513  1.0000
  C  Sn8       1.0  0.95019  0.59927  0.12696  1.0000
  C   C111      1.0  0.98616  0.63683  0.05097  1.0000
  C   C112      1.0  0.03310  0.75710  0.95410  1.0000
  H   H43       1.0  0.07192  0.70564  0.85766  1.0000
  O  Te7       1.0  0.92124  0.51504  0.17955  1.0000
  O  Te8       1.0  0.90839  0.60760  0.22331  1.0000
  H   H44       1.0  0.06075  0.78635  0.89570  1.0000
  Mg  Mg4       1.0  0.87058  0.54423  0.29940  1.0000
  C   C113      1.0  0.25654  0.30619  0.11060  1.0000
  C   C114      1.0  0.23886  0.24786  0.00290  1.0000
  C  Sn9       1.0  0.27638  0.35516  0.87792  1.0000
  C  Sn10      1.0  0.32766  0.39365  0.86078  1.0000
  C   C115      1.0  0.34499  0.45192  0.96925  1.0000
  C   C116      1.0  0.30712  0.34419  0.09384  1.0000
  H   H45       1.0  0.23102  0.32188  0.20707  1.0000
  O  Te9       1.0  0.25809  0.29676  0.77133  1.0000
  O  Te10      1.0  0.36111  0.37410  0.73701  1.0000
  H   H46       1.0  0.32083  0.38935  0.17729  1.0000
  Mg  Mg5       1.0  0.31829  0.29073  0.62204  1.0000
  C   C117      1.0  0.72656  0.05684  0.14011  1.0000
  C   C118      1.0  0.68065  0.01608  0.03765  1.0000
  C  Sn11      1.0  0.17946  0.09067  0.90455  1.0000
  C  Sn12      1.0  0.22083  0.07794  0.87379  1.0000
  C   C119      1.0  0.26658  0.11900  0.97710  1.0000
  C   C120      1.0  0.76737  0.04431  0.10991  1.0000
  H   H47       1.0  0.73043  0.09809  0.24294  1.0000
  O  Te11      1.0  0.13334  0.05045  0.80336  1.0000
  O  Te12      1.0  0.21644  0.02488  0.74167  1.0000
  H   H48       1.0  0.80290  0.07585  0.18930  1.0000
  Mg  Mg6       1.0  0.14594  0.98418  0.63869  1.0000
  C   C121      1.0  0.46690  0.95105  0.81504  1.0000
  C   C122      1.0  0.45354  0.98841  0.97591  1.0000
  C  Sn13      1.0  0.48373  0.90152  0.12574  1.0000
  C  Sn14      1.0  0.53306  0.90521  0.11386  1.0000
  C   C123      1.0  0.55095  0.99567  0.95226  1.0000
  C   C124      1.0  0.51556  0.95467  0.80318  1.0000
  H   H49       1.0  0.43953  0.91934  0.69964  1.0000
  O  Te13      1.0  0.46975  0.93851  0.28546  1.0000
  O  Te14      1.0  0.56886  0.94592  0.26152  1.0000
  H   H50       1.0  0.52592  0.92577  0.67859  1.0000
  Mg  Mg7       1.0  0.53181  0.98676  0.44976  1.0000
  C   C125      1.0  0.05086  0.49477  0.91715  1.0000
  C   C126      1.0  0.00713  0.45610  0.97002  1.0000
  C  Sn15      1.0  0.95734  0.33386  0.01350  1.0000
  C  Sn16      1.0  0.95630  0.37921  0.00370  1.0000
  C   C127      1.0  0.00512  0.54565  0.95054  1.0000
  C   C128      1.0  0.04986  0.53950  0.90738  1.0000
  H   H51       1.0  0.08547  0.48999  0.88366  1.0000
  O  Te15      1.0  0.91400  0.29487  0.06613  1.0000
  O  Te16      1.0  0.91192  0.38596  0.04635  1.0000
  H   H52       1.0  0.08370  0.56942  0.86633  1.0000
  Mg  Mg8       1.0  0.86266  0.32193  0.11092  1.0000
  C   C129      1.0  0.51753  0.47229  0.84623  1.0000
  C   C130      1.0  0.54261  0.53035  0.96259  1.0000
  C  Sn17      1.0  0.51716  0.42547  0.13631  1.0000
  C  Sn18      1.0  0.47063  0.38970  0.19425  1.0000
  C   C131      1.0  0.44585  0.33167  0.07687  1.0000
  C   C132      1.0  0.47164  0.43698  0.90330  1.0000
  H   H53       1.0  0.53371  0.45473  0.71197  1.0000
  O  Te17      1.0  0.54271  0.48357  0.25081  1.0000
  O  Te18      1.0  0.44924  0.41170  0.36720  1.0000
  H   H54       1.0  0.45223  0.39202  0.81329  1.0000
  Mg  Mg9       1.0  0.49835  0.49356  0.47381  1.0000
  C   C133      1.0  0.05705  0.33147  0.54769  1.0000
  C   C134      1.0  0.02322  0.33595  0.46943  1.0000
  C  Sn19      1.0  0.97719  0.28843  0.38438  1.0000
  C  Sn20      1.0  0.96490  0.23552  0.37780  1.0000
  C   C135      1.0  0.99898  0.23150  0.45661  1.0000
  C   C136      1.0  0.04495  0.27931  0.54133  1.0000
  H   H55       1.0  0.09260  0.36847  0.61333  1.0000
  O  Te19      1.0  0.94384  0.29364  0.30682  1.0000
  O  Te20      1.0  0.91915  0.18736  0.29371  1.0000
  H   H56       1.0  0.07111  0.27584  0.60201  1.0000
  Mg  Mg10      1.0  0.88614  0.21587  0.20753  1.0000
  C   C137      1.0  0.70924  0.77638  0.67948  1.0000
  C   C138      1.0  0.75236  0.77464  0.57344  1.0000
  C  Sn21      1.0  0.75159  0.72260  0.44942  1.0000
  C  Sn22      1.0  0.70675  0.67142  0.43149  1.0000
  C   C139      1.0  0.66380  0.67361  0.53811  1.0000
  C   C140      1.0  0.66500  0.72592  0.66183  1.0000
  H   H57       1.0  0.71015  0.81685  0.77514  1.0000
  O  Te21      1.0  0.79501  0.72163  0.34459  1.0000
  O  Te22      1.0  0.70493  0.61882  0.30854  1.0000
  H   H58       1.0  0.63159  0.72725  0.74383  1.0000
  Mg  Mg11      1.0  0.77383  0.63950  0.19599  1.0000
  C   C141      1.0  0.27383  0.94052  0.32571  1.0000
  C   C142      1.0  0.31984  0.98094  0.42778  1.0000
  C  Sn23      1.0  0.32317  0.03106  0.58035  1.0000
  C  Sn24      1.0  0.27955  0.04077  0.63138  1.0000
  C   C143      1.0  0.23369  0.00005  0.52846  1.0000
  C   C144      1.0  0.23079  0.95005  0.37600  1.0000
  H   H59       1.0  0.27157  0.90182  0.20781  1.0000
  O  Te23      1.0  0.36944  0.07101  0.68077  1.0000
  O  Te24      1.0  0.28181  0.09048  0.78330  1.0000
  H   H60       1.0  0.19515  0.91874  0.29708  1.0000
  Mg  Mg12      1.0  0.85410  0.13217  0.87669  1.0000
  C   C145      1.0  0.03907  0.74120  0.45690  1.0000
  C   C146      1.0  0.00406  0.76319  0.52960  1.0000
  C  Sn25      1.0  0.95857  0.73542  0.60898  1.0000
  C  Sn26      1.0  0.94803  0.68473  0.61555  1.0000
  C   C147      1.0  0.98332  0.66310  0.54256  1.0000
  C   C148      1.0  0.02872  0.69122  0.46339  1.0000
  H   H61       1.0  0.07421  0.76297  0.39573  1.0000
  O  Te25      1.0  0.92400  0.75795  0.68091  1.0000
  O  Te26      1.0  0.90287  0.65613  0.69416  1.0000
  H   H62       1.0  0.05583  0.67421  0.40723  1.0000
  Mg  Mg13      1.0  0.86771  0.70356  0.77381  1.0000
  C   C149      1.0  0.26227  0.30808  0.63197  1.0000
  C   C150      1.0  0.24186  0.25023  0.51143  1.0000
  C  Sn27      1.0  0.27209  0.22897  0.37192  1.0000
  C  Sn28      1.0  0.32369  0.26640  0.35313  1.0000
  C   C151      1.0  0.34377  0.32419  0.47451  1.0000
  C   C152      1.0  0.31318  0.34503  0.61358  1.0000
  H   H63       1.0  0.23862  0.32419  0.73965  1.0000
  O  Te27      1.0  0.25108  0.17106  0.25262  1.0000
  O  Te28      1.0  0.35476  0.24628  0.21496  1.0000
  H   H64       1.0  0.32900  0.38981  0.70698  1.0000
  Mg  Mg14      1.0  0.30868  0.16393  0.08612  1.0000
  C   C153      1.0  0.68546  0.95353  0.34930  1.0000
  C   C154      1.0  0.67047  0.99411  0.48307  1.0000
  C  Sn29      1.0  0.70498  0.04312  0.62364  1.0000
  C  Sn30      1.0  0.75541  0.05156  0.63003  1.0000
  C   C155      1.0  0.77006  0.01073  0.49548  1.0000
  C   C156      1.0  0.73521  0.96183  0.35545  1.0000
  H   H65       1.0  0.65852  0.91571  0.24089  1.0000
  O  Te29      1.0  0.68936  0.08322  0.75623  1.0000
  O  Te30      1.0  0.29134  0.10017  0.76897  1.0000
  H   H66       1.0  0.74685  0.93044  0.25183  1.0000
  Mg  Mg15      1.0  0.25194  0.14256  0.91833  1.0000
  C   C157      1.0  0.00990  0.04891  0.66186  1.0000
  C   C158      1.0  0.96527  0.01674  0.55132  1.0000
  C  Sn31      1.0  0.95904  0.96782  0.38693  1.0000
  C  Sn32      1.0  0.99829  0.95089  0.33260  1.0000
  C   C159      1.0  0.04278  0.98335  0.44422  1.0000
  C   C160      1.0  0.04861  0.03223  0.60841  1.0000
  H   H67       1.0  0.01440  0.08672  0.78896  1.0000
  O  Te31      1.0  0.91422  0.93618  0.27809  1.0000
  O  Te32      1.0  0.99306  0.90217  0.16902  1.0000
  H   H68       1.0  0.08316  0.05711  0.69404  1.0000
  Mg  Mg16      1.0  0.92494  0.87311  0.06731  1.0000
  C   C161      1.0  0.05096  0.52651  0.44810  1.0000
  C   C162      1.0  0.01478  0.54395  0.45982  1.0000
  C  Sn33      1.0  0.96331  0.51208  0.49080  1.0000
  C  Sn34      1.0  0.94790  0.46185  0.51040  1.0000
  C   C163      1.0  0.98440  0.44478  0.49859  1.0000
  C   C164      1.0  0.03579  0.47698  0.46750  1.0000
  H   H69       1.0  0.09073  0.55143  0.42415  1.0000
  O  Te33      1.0  0.92766  0.53010  0.50206  1.0000
  O  Te34      1.0  0.89672  0.42921  0.54153  1.0000
  H   H70       1.0  0.06380  0.46349  0.45856  1.0000
  Mg  Mg17      1.0  0.86239  0.47127  0.54605  1.0000
  C   C165      1.0  0.50122  0.44770  0.38401  1.0000
  C   C166      1.0  0.46245  0.45532  0.50853  1.0000
  C  Sn35      1.0  0.46955  0.50988  0.63561  1.0000
  C  Sn36      1.0  0.51636  0.55761  0.63770  1.0000
  C   C167      1.0  0.55489  0.54954  0.51246  1.0000
  C   C168      1.0  0.54739  0.49476  0.38592  1.0000
  H   H71       1.0  0.49541  0.40533  0.28602  1.0000
  O  Te35      1.0  0.43043  0.51673  0.75911  1.0000
  O  Te36      1.0  0.52446  0.61261  0.76320  1.0000
  H   H72       1.0  0.57740  0.48888  0.28944  1.0000
  Mg  Mg18      1.0  0.45966  0.60013  0.90396  1.0000
