data_image0
_chemical_formula_structural       C42H12N6C6H6C42H12N6C6H6SnCSn2CSnTe4Mg2SnCSn2CSnTe4Mg2SnCSn2CSnTe4Mg2SnCSn2CSnTe4Mg2SnCSn2CSnTe4Mg2SnCSn2CSnTe4Mg2SnCSn2CSnTe4Mg2SnCSn2CSnTe4Mg2SnCSn2CSnTe4Mg2SnCSn2CSnTe4Mg2SnCSn2CSnTe4Mg2SnCSn2CSnTe4Mg2SnCSn2CSnTe4Mg2SnCSn2CSnTe4Mg2SnCSn2CSnTe4Mg2SnCSn2CSnTe4Mg2SnCSn2CSnTe4Mg2SnCSn2CSnTe4Mg2
_chemical_formula_sum              "C132 H36 N12 Sn72 Te72 Mg36"
_cell_length_a       30.1318
_cell_length_b       30.0815
_cell_length_c       8.03603
_cell_angle_alpha    118.036
_cell_angle_beta     77.2101
_cell_angle_gamma    120.012

_symmetry_space_group_name_H-M    'P1'
_space_group_IT_number       1

loop_
  _space_group_symop_operation_xyz
  'x, y, z'

loop_
  _atom_site_type_symbol
  _atom_site_label
  _atom_site_symmetry_multiplicity
  _atom_site_fract_x
  _atom_site_fract_y
  _atom_site_fract_z
  _atom_site_occupancy
  C   C1        1.0  0.04675  0.00023  0.01562  1.0000
  C   C2        1.0  0.99990  0.04459  0.99079  1.0000
  C   C3        1.0  0.95233  0.95275  0.01151  1.0000
  C   C4        1.0  0.95257  0.99808  0.99555  1.0000
  C   C5        1.0  0.99944  0.95392  0.02210  1.0000
  C   C6        1.0  0.04702  0.04575  0.00133  1.0000
  C   C7        1.0  0.09435  0.00089  0.02290  1.0000
  C   C8        1.0  0.00018  0.09014  0.97305  1.0000
  C   C9        1.0  0.90450  0.90566  0.01593  1.0000
  C   C10       1.0  0.90506  0.99706  0.98435  1.0000
  C   C11       1.0  0.99930  0.90823  0.03833  1.0000
  C   C12       1.0  0.09489  0.09294  0.99754  1.0000
  C   C13       1.0  0.04618  0.90815  0.04420  1.0000
  C   C14       1.0  0.09559  0.13901  0.98539  1.0000
  C   C15       1.0  0.85744  0.95063  0.98897  1.0000
  C   C16       1.0  0.95343  0.08957  0.96062  1.0000
  C   C17       1.0  0.90380  0.85990  0.03072  1.0000
  C   C18       1.0  0.14196  0.04727  0.01795  1.0000
  C   C19       1.0  0.09456  0.95491  0.03290  1.0000
  C   C20       1.0  0.04738  0.13671  0.96744  1.0000
  C   C21       1.0  0.85719  0.90435  0.00618  1.0000
  C   C22       1.0  0.90495  0.04257  0.97023  1.0000
  C   C23       1.0  0.95213  0.86182  0.04587  1.0000
  C   C24       1.0  0.14226  0.09408  0.00487  1.0000
  C   C25       1.0  0.04485  0.86232  0.05473  1.0000
  C   C26       1.0  0.14273  0.18555  0.98969  1.0000
  C   C27       1.0  0.81166  0.95062  0.97836  1.0000
  C   C28       1.0  0.95496  0.13514  0.94684  1.0000
  C   C29       1.0  0.85655  0.81402  0.03110  1.0000
  C   C30       1.0  0.18776  0.04656  0.02284  1.0000
  C   C31       1.0  0.18820  0.00040  0.02281  1.0000
  C   C32       1.0  0.00119  0.18131  0.94291  1.0000
  C   C33       1.0  0.81001  0.81305  0.02558  1.0000
  C   C34       1.0  0.81118  0.99586  0.97139  1.0000
  C   C35       1.0  0.99878  0.81626  0.06017  1.0000
  C   C36       1.0  0.18929  0.18613  0.99122  1.0000
  C   C37       1.0  0.14142  0.95516  0.02849  1.0000
  C   C38       1.0  0.04666  0.17985  0.94636  1.0000
  C   C39       1.0  0.81122  0.85865  0.01495  1.0000
  C   C40       1.0  0.85801  0.04134  0.96730  1.0000
  C   C41       1.0  0.95306  0.81763  0.05956  1.0000
  C   C42       1.0  0.18821  0.13975  0.99561  1.0000
  H   H1        1.0  0.14384  0.22136  0.98345  1.0000
  H   H2        1.0  0.77509  0.91594  0.98376  1.0000
  H   H3        1.0  0.08048  0.86238  0.06105  1.0000
  H   H4        1.0  0.85519  0.77931  0.04595  1.0000
  H   H5        1.0  0.22431  0.08143  0.01833  1.0000
  H   H6        1.0  0.91947  0.13568  0.94283  1.0000
  H   H7        1.0  0.22460  0.14066  0.99650  1.0000
  H   H8        1.0  0.85718  0.07549  0.95580  1.0000
  H   H9        1.0  0.91720  0.78163  0.06121  1.0000
  H   H10       1.0  0.77484  0.85700  0.00866  1.0000
  H   H11       1.0  0.14245  0.92051  0.03555  1.0000
  H   H12       1.0  0.08253  0.21351  0.93075  1.0000
  N   N1        1.0  0.38179  0.36592  0.94705  1.0000
  N   N2        1.0  0.62529  0.00979  0.04496  1.0000
  N   N3        1.0  0.98172  0.61172  0.00060  1.0000
  N   N4        1.0  0.61885  0.63761  0.10498  1.0000
  N   N5        1.0  0.37319  0.98264  0.92635  1.0000
  N   N6        1.0  0.02115  0.38238  0.96056  1.0000
  C   C43       1.0  0.40309  0.41665  0.07949  1.0000
  C   C44       1.0  0.59103  0.98247  0.91373  1.0000
  C   C45       1.0  0.01850  0.59849  0.96825  1.0000
  C   C46       1.0  0.59720  0.58627  0.97616  1.0000
  C   C47       1.0  0.40888  0.01041  0.05265  1.0000
  C   C48       1.0  0.98472  0.39547  0.98457  1.0000
  H   H13       1.0  0.38630  0.42939  0.22002  1.0000
  H   H14       1.0  0.59547  0.95373  0.76982  1.0000
  H   H15       1.0  0.05846  0.62648  0.94824  1.0000
  H   H16       1.0  0.61403  0.57227  0.83646  1.0000
  H   H17       1.0  0.40660  0.04108  0.19584  1.0000
  H   H18       1.0  0.94552  0.36986  0.01926  1.0000
  C   C49       1.0  0.04761  0.00275  0.51395  1.0000
  C   C50       1.0  0.00142  0.04808  0.49042  1.0000
  C   C51       1.0  0.95310  0.95592  0.50865  1.0000
  C   C52       1.0  0.95382  0.00177  0.49473  1.0000
  C   C53       1.0  0.99999  0.95643  0.51829  1.0000
  C   C54       1.0  0.04830  0.04862  0.50042  1.0000
  C   C55       1.0  0.09493  0.00281  0.52160  1.0000
  C   C56       1.0  0.00216  0.09409  0.47427  1.0000
  C   C57       1.0  0.90497  0.90912  0.51329  1.0000
  C   C58       1.0  0.90646  0.00155  0.48634  1.0000
  C   C59       1.0  0.99929  0.91046  0.53468  1.0000
  C   C60       1.0  0.09640  0.09569  0.49752  1.0000
  C   C61       1.0  0.04583  0.91001  0.54274  1.0000
  C   C62       1.0  0.09760  0.14227  0.48686  1.0000
  C   C63       1.0  0.85857  0.95537  0.49103  1.0000
  C   C64       1.0  0.95557  0.09399  0.46254  1.0000
  C   C65       1.0  0.90382  0.86322  0.52846  1.0000
  C   C66       1.0  0.14281  0.04893  0.51670  1.0000
  C   C67       1.0  0.09453  0.95636  0.53038  1.0000
  C   C68       1.0  0.04958  0.14068  0.47009  1.0000
  C   C69       1.0  0.85785  0.90846  0.50537  1.0000
  C   C70       1.0  0.90683  0.04777  0.47564  1.0000
  C   C71       1.0  0.95182  0.86453  0.54323  1.0000
  C   C72       1.0  0.14347  0.09620  0.50532  1.0000
  C   C73       1.0  0.04388  0.86456  0.55839  1.0000
  C   C74       1.0  0.14506  0.18863  0.49178  1.0000
  C   C75       1.0  0.81295  0.95617  0.48382  1.0000
  C   C76       1.0  0.95752  0.13919  0.44514  1.0000
  C   C77       1.0  0.85640  0.81791  0.53115  1.0000
  C   C78       1.0  0.18843  0.04756  0.52011  1.0000
  C   C79       1.0  0.18820  0.00083  0.51829  1.0000
  C   C80       1.0  0.00391  0.18573  0.44460  1.0000
  C   C81       1.0  0.81012  0.81753  0.52677  1.0000
  C   C82       1.0  0.81303  0.00240  0.48248  1.0000
  C   C83       1.0  0.99739  0.81875  0.56336  1.0000
  C   C84       1.0  0.19124  0.18856  0.49433  1.0000
  C   C85       1.0  0.14116  0.95580  0.52345  1.0000
  C   C86       1.0  0.04922  0.18476  0.45389  1.0000
  C   C87       1.0  0.81161  0.86324  0.51607  1.0000
  C   C88       1.0  0.86008  0.04783  0.47933  1.0000
  C   C89       1.0  0.95208  0.82047  0.56001  1.0000
  C   C90       1.0  0.18968  0.14196  0.49856  1.0000
  H   H19       1.0  0.14676  0.22458  0.48439  1.0000
  H   H20       1.0  0.77616  0.92127  0.48679  1.0000
  H   H21       1.0  0.07928  0.86487  0.56976  1.0000
  H   H22       1.0  0.85466  0.78338  0.54842  1.0000
  H   H23       1.0  0.22514  0.08210  0.51449  1.0000
  H   H24       1.0  0.92206  0.13908  0.43615  1.0000
  H   H25       1.0  0.22593  0.14292  0.50216  1.0000
  H   H26       1.0  0.85942  0.08271  0.47252  1.0000
  H   H27       1.0  0.91600  0.78517  0.56489  1.0000
  H   H28       1.0  0.77537  0.86230  0.51271  1.0000
  H   H29       1.0  0.14172  0.92034  0.52607  1.0000
  H   H30       1.0  0.08533  0.21952  0.44634  1.0000
  N   N7        1.0  0.38727  0.36563  0.45952  1.0000
  N   N8        1.0  0.62668  0.01473  0.54237  1.0000
  N   N9        1.0  0.97586  0.61210  0.50303  1.0000
  N   N10       1.0  0.61825  0.63901  0.58599  1.0000
  N   N11       1.0  0.37239  0.98241  0.43605  1.0000
  N   N12       1.0  0.01808  0.38530  0.46967  1.0000
  C   C91       1.0  0.40160  0.41949  0.55009  1.0000
  C   C92       1.0  0.59029  0.98344  0.41657  1.0000
  C   C93       1.0  0.01298  0.60025  0.48277  1.0000
  C   C94       1.0  0.60483  0.58530  0.49720  1.0000
  C   C95       1.0  0.40915  0.01277  0.55989  1.0000
  C   C96       1.0  0.98023  0.39528  0.48127  1.0000
  H   H31       1.0  0.37626  0.43732  0.64351  1.0000
  H   H32       1.0  0.59168  0.95024  0.27848  1.0000
  H   H33       1.0  0.05331  0.62986  0.47445  1.0000
  H   H34       1.0  0.63027  0.56803  0.40148  1.0000
  H   H35       1.0  0.40866  0.04663  0.69754  1.0000
  H   H36       1.0  0.94036  0.36652  0.49897  1.0000
  C  Sn1       1.0  0.04524  0.30080  0.08156  1.0000
  C   C97       1.0  0.00473  0.24583  0.00997  1.0000
  C  Sn2       1.0  0.97291  0.35900  0.88839  1.0000
  C  Sn3       1.0  0.97679  0.39995  0.83719  1.0000
  C   C98       1.0  0.01728  0.45489  0.90874  1.0000
  C  Sn4       1.0  0.04912  0.34176  0.03036  1.0000
  O  Te1       1.0  0.08149  0.31470  0.20288  1.0000
  O  Te2       1.0  0.93274  0.30377  0.81868  1.0000
  O  Te3       1.0  0.94049  0.38601  0.71577  1.0000
  O  Te4       1.0  0.08926  0.39694  0.10002  1.0000
  Mg  Mg1       1.0  0.89285  0.30530  0.65770  1.0000
  Mg  Mg2       1.0  0.12919  0.39545  0.26092  1.0000
  C  Sn5       1.0  0.67855  0.74522  0.13664  1.0000
  C   C99       1.0  0.66388  0.68717  0.05391  1.0000
  C  Sn6       1.0  0.70520  0.79560  0.97048  1.0000
  C  Sn7       1.0  0.75738  0.83486  0.96982  1.0000
  C   C100      1.0  0.76714  0.76486  0.05254  1.0000
  C  Sn8       1.0  0.73073  0.78447  0.13598  1.0000
  O  Te5       1.0  0.64147  0.76384  0.21924  1.0000
  O  Te6       1.0  0.68962  0.73737  0.88860  1.0000
  O  Te7       1.0  0.79446  0.81619  0.88712  1.0000
  O  Te8       1.0  0.74629  0.84266  0.21785  1.0000
  Mg  Mg3       1.0  0.75437  0.73277  0.79371  1.0000
  Mg  Mg4       1.0  0.68158  0.84732  0.31286  1.0000
  C  Sn9       1.0  0.24354  0.93743  0.90608  1.0000
  C   C101      1.0  0.22934  0.85576  0.02419  1.0000
  C  Sn10      1.0  0.27011  0.91015  0.10492  1.0000
  C  Sn11      1.0  0.32127  0.91841  0.06672  1.0000
  C   C102      1.0  0.33546  0.00009  0.94865  1.0000
  C  Sn12      1.0  0.29471  0.94568  0.86788  1.0000
  O  Te9       1.0  0.20220  0.88343  0.82690  1.0000
  O  Te10      1.0  0.25983  0.95582  0.22259  1.0000
  O  Te11      1.0  0.36262  0.97246  0.14602  1.0000
  O  Te12      1.0  0.30497  0.90004  0.75025  1.0000
  Mg  Mg5       1.0  0.32904  0.02124  0.29699  1.0000
  Mg  Mg6       1.0  0.23579  0.83461  0.67569  1.0000
  C  Sn13      1.0  0.94121  0.68115  0.06368  1.0000
  C   C103      1.0  0.98071  0.78696  0.97877  1.0000
  C  Sn14      1.0  0.03070  0.82135  0.94297  1.0000
  C  Sn15      1.0  0.04644  0.87916  0.99320  1.0000
  C   C104      1.0  0.00696  0.77333  0.07808  1.0000
  C  Sn16      1.0  0.95695  0.73896  0.11390  1.0000
  O  Te13      1.0  0.89142  0.64599  0.09815  1.0000
  O  Te14      1.0  0.06461  0.79819  0.85788  1.0000
  O  Te15      1.0  0.09628  0.91432  0.95864  1.0000
  O  Te16      1.0  0.92306  0.76210  0.19897  1.0000
  Mg  Mg7       1.0  0.12841  0.86315  0.83986  1.0000
  Mg  Mg8       1.0  0.85926  0.69719  0.21714  1.0000
  C  Sn17      1.0  0.25120  0.30235  0.05483  1.0000
  C   C105      1.0  0.24111  0.37222  0.95998  1.0000
  C  Sn18      1.0  0.27770  0.35281  0.87758  1.0000
  C  Sn19      1.0  0.33035  0.39235  0.89035  1.0000
  C   C106      1.0  0.34530  0.45045  0.98518  1.0000
  C  Sn20      1.0  0.30385  0.34188  0.06760  1.0000
  O  Te17      1.0  0.21397  0.32078  0.13616  1.0000
  O  Te18      1.0  0.26180  0.29449  0.78344  1.0000
  O  Te19      1.0  0.36758  0.37386  0.80892  1.0000
  O  Te20      1.0  0.31973  0.40016  0.16172  1.0000
  Mg  Mg9       1.0  0.32693  0.29021  0.69573  1.0000
  Mg  Mg10      1.0  0.25463  0.40449  0.24956  1.0000
  C  Sn21      1.0  0.71204  0.95224  0.82544  1.0000
  C   C107      1.0  0.75791  0.99420  0.92671  1.0000
  C  Sn22      1.0  0.75407  0.91310  0.09035  1.0000
  C  Sn23      1.0  0.70830  0.91817  0.15419  1.0000
  C   C108      1.0  0.66246  0.87622  0.05297  1.0000
  C  Sn24      1.0  0.66627  0.95730  0.88928  1.0000
  O  Te21      1.0  0.71189  0.90570  0.66223  1.0000
  O  Te22      1.0  0.80039  0.95452  0.18918  1.0000
  O  Te23      1.0  0.70848  0.96475  0.31754  1.0000
  O  Te24      1.0  0.61998  0.91590  0.79050  1.0000
  Mg  Mg11      1.0  0.78104  0.01001  0.40354  1.0000
  Mg  Mg12      1.0  0.63928  0.86038  0.57619  1.0000
  C  Sn25      1.0  0.49892  0.96070  0.78603  1.0000
  C   C109      1.0  0.54231  0.99265  0.90290  1.0000
  C  Sn26      1.0  0.53571  0.89995  0.09251  1.0000
  C  Sn27      1.0  0.48966  0.90339  0.16691  1.0000
  C   C110      1.0  0.44630  0.87145  0.05008  1.0000
  C  Sn28      1.0  0.45287  0.96414  0.86043  1.0000
  O  Te25      1.0  0.50150  0.92568  0.59692  1.0000
  O  Te26      1.0  0.57959  0.93150  0.20656  1.0000
  O  Te27      1.0  0.48710  0.93846  0.35619  1.0000
  O  Te28      1.0  0.40902  0.93260  0.74642  1.0000
  Mg  Mg13      1.0  0.55697  0.97309  0.45510  1.0000
  Mg  Mg14      1.0  0.43158  0.89097  0.49790  1.0000
  C  Sn29      1.0  0.95931  0.50632  0.06427  1.0000
  C   C111      1.0  0.00425  0.54586  0.01949  1.0000
  C  Sn30      1.0  0.04912  0.66061  0.93105  1.0000
  C  Sn31      1.0  0.04408  0.60671  0.88632  1.0000
  C   C112      1.0  0.99916  0.56721  0.93106  1.0000
  C  Sn32      1.0  0.95427  0.45242  0.01954  1.0000
  O  Te29      1.0  0.91981  0.52048  0.15267  1.0000
  O  Te30      1.0  0.09369  0.70084  0.88774  1.0000
  O  Te31      1.0  0.08363  0.59258  0.79786  1.0000
  O  Te32      1.0  0.90972  0.41222  0.06282  1.0000
  Mg  Mg15      1.0  0.13680  0.66161  0.76726  1.0000
  Mg  Mg16      1.0  0.86658  0.45139  0.18321  1.0000
  C  Sn33      1.0  0.51031  0.48025  0.83239  1.0000
  C   C113      1.0  0.53712  0.53689  0.95974  1.0000
  C  Sn34      1.0  0.51840  0.42729  0.14895  1.0000
  C  Sn35      1.0  0.47692  0.38825  0.21225  1.0000
  C   C114      1.0  0.45014  0.33165  0.08495  1.0000
  C  Sn36      1.0  0.46883  0.44122  0.89569  1.0000
  O  Te33      1.0  0.52482  0.46279  0.64388  1.0000
  O  Te34      1.0  0.54577  0.48413  0.27361  1.0000
  O  Te35      1.0  0.46243  0.40576  0.40093  1.0000
  O  Te36      1.0  0.44149  0.38441  0.77108  1.0000
  Mg  Mg17      1.0  0.51147  0.48749  0.51671  1.0000
  Mg  Mg18      1.0  0.47578  0.38099  0.52799  1.0000
  C  Sn37      1.0  0.06095  0.32652  0.48592  1.0000
  C   C115      1.0  0.02412  0.33097  0.42395  1.0000
  C  Sn38      1.0  0.97370  0.28760  0.38746  1.0000
  C  Sn39      1.0  0.95978  0.23877  0.41357  1.0000
  C   C116      1.0  0.99660  0.23435  0.47554  1.0000
  C  Sn40      1.0  0.04703  0.27770  0.51203  1.0000
  O  Te37      1.0  0.11113  0.37040  0.52154  1.0000
  O  Te38      1.0  0.93756  0.29299  0.32556  1.0000
  O  Te39      1.0  0.90956  0.19488  0.37789  1.0000
  O  Te40      1.0  0.08316  0.27232  0.57392  1.0000
  Mg  Mg19      1.0  0.87410  0.22189  0.29595  1.0000
  Mg  Mg20      1.0  0.14662  0.34341  0.60367  1.0000
  C  Sn41      1.0  0.67882  0.74837  0.64049  1.0000
  C   C117      1.0  0.66390  0.69024  0.54555  1.0000
  C  Sn42      1.0  0.70009  0.67091  0.45245  1.0000
  C  Sn43      1.0  0.75228  0.71049  0.45437  1.0000
  C   C118      1.0  0.76718  0.76858  0.54929  1.0000
  C  Sn44      1.0  0.73101  0.78796  0.64241  1.0000
  O  Te41      1.0  0.64199  0.76675  0.73261  1.0000
  O  Te42      1.0  0.68426  0.61259  0.35845  1.0000
  O  Te43      1.0  0.78912  0.69207  0.36213  1.0000
  O  Te44      1.0  0.74682  0.84623  0.73639  1.0000
  Mg  Mg21      1.0  0.74874  0.60841  0.25373  1.0000
  Mg  Mg22      1.0  0.68238  0.85046  0.84123  1.0000
  C  Sn45      1.0  0.80876  0.03409  0.66164  1.0000
  C   C119      1.0  0.82122  0.99168  0.52516  1.0000
  C  Sn46      1.0  0.79208  0.95275  0.35864  1.0000
  C  Sn47      1.0  0.74962  0.95630  0.32783  1.0000
  C   C120      1.0  0.73719  0.99870  0.46425  1.0000
  C  Sn48      1.0  0.76630  0.03764  0.63083  1.0000
  O  Te45      1.0  0.83842  0.07255  0.82706  1.0000
  O  Te46      1.0  0.80528  0.91071  0.22429  1.0000
  O  Te47      1.0  0.71996  0.91779  0.16225  1.0000
  O  Te48      1.0  0.75313  0.07966  0.76511  1.0000
  Mg  Mg23      1.0  0.75318  0.86815  0.02150  1.0000
  Mg  Mg24      1.0  0.80521  0.12226  0.96790  1.0000
  C  Sn49      1.0  0.95519  0.72872  0.67867  1.0000
  C   C121      1.0  0.99403  0.76784  0.61395  1.0000
  C  Sn50      1.0  0.02811  0.75280  0.47847  1.0000
  C  Sn51      1.0  0.02325  0.69749  0.40607  1.0000
  C   C122      1.0  0.98442  0.65841  0.47076  1.0000
  C  Sn52      1.0  0.95033  0.67342  0.60627  1.0000
  O  Te49      1.0  0.92154  0.74467  0.81417  1.0000
  O  Te50      1.0  0.06665  0.79264  0.41598  1.0000
  O  Te51      1.0  0.05694  0.68156  0.27047  1.0000
  O  Te52      1.0  0.91181  0.63361  0.66872  1.0000
  Mg  Mg25      1.0  0.10312  0.75076  0.22973  1.0000
  Mg  Mg26      1.0  0.87529  0.67543  0.85489  1.0000
  C  Sn53      1.0  0.25657  0.30607  0.58012  1.0000
  C   C123      1.0  0.23889  0.24781  0.47061  1.0000
  C  Sn54      1.0  0.27327  0.22635  0.37001  1.0000
  C  Sn55      1.0  0.32644  0.26389  0.37915  1.0000
  C   C124      1.0  0.34409  0.32211  0.48863  1.0000
  C  Sn56      1.0  0.30973  0.34361  0.58925  1.0000
  O  Te53      1.0  0.22150  0.32659  0.67953  1.0000
  O  Te54      1.0  0.25468  0.16795  0.26144  1.0000
  O  Te55      1.0  0.36150  0.24332  0.27961  1.0000
  O  Te56      1.0  0.32830  0.40197  0.69779  1.0000
  Mg  Mg27      1.0  0.31755  0.16044  0.15145  1.0000
  Mg  Mg28      1.0  0.26547  0.40952  0.80791  1.0000
  C  Sn57      1.0  0.24363  0.04756  0.67663  1.0000
  C   C125      1.0  0.25718  0.00559  0.54432  1.0000
  C  Sn58      1.0  0.22811  0.96478  0.37865  1.0000
  C  Sn59      1.0  0.18459  0.96596  0.34444  1.0000
  C   C126      1.0  0.17106  0.00791  0.47668  1.0000
  C  Sn60      1.0  0.20011  0.04874  0.64242  1.0000
  O  Te57      1.0  0.27325  0.08794  0.84128  1.0000
  O  Te58      1.0  0.24240  0.92322  0.24849  1.0000
  O  Te59      1.0  0.15496  0.92553  0.17963  1.0000
  O  Te60      1.0  0.18584  0.09028  0.77251  1.0000
  Mg  Mg29      1.0  0.18990  0.87746  0.04513  1.0000
  Mg  Mg30      1.0  0.73898  0.13608  0.97586  1.0000
  C  Sn61      1.0  0.49549  0.95760  0.29599  1.0000
  C   C127      1.0  0.54085  0.99220  0.40360  1.0000
  C  Sn62      1.0  0.54208  0.03199  0.58858  1.0000
  C  Sn63      1.0  0.49702  0.03729  0.66771  1.0000
  C   C128      1.0  0.45170  0.00270  0.56013  1.0000
  C  Sn64      1.0  0.45044  0.96290  0.37512  1.0000
  O  Te61      1.0  0.49515  0.91810  0.11136  1.0000
  O  Te62      1.0  0.58788  0.06612  0.69338  1.0000
  O  Te63      1.0  0.49740  0.07683  0.85249  1.0000
  O  Te64      1.0  0.40467  0.92878  0.27035  1.0000
  Mg  Mg31      1.0  0.56905  0.11363  0.93880  1.0000
  Mg  Mg32      1.0  0.42344  0.88123  0.02497  1.0000
  C  Sn65      1.0  0.94236  0.46044  0.45259  1.0000
  C   C129      1.0  0.97879  0.44226  0.42941  1.0000
  C  Sn66      1.0  0.03106  0.48015  0.44620  1.0000
  C  Sn67      1.0  0.04725  0.53742  0.48714  1.0000
  C   C130      1.0  0.01083  0.55558  0.51033  1.0000
  C  Sn68      1.0  0.95855  0.51771  0.49353  1.0000
  O  Te65      1.0  0.89031  0.42182  0.43519  1.0000
  O  Te66      1.0  0.06676  0.46098  0.42236  1.0000
  O  Te67      1.0  0.09934  0.57604  0.50453  1.0000
  O  Te68      1.0  0.92286  0.53685  0.51738  1.0000
  Mg  Mg33      1.0  0.13333  0.52967  0.45986  1.0000
  Mg  Mg34      1.0  0.85629  0.46821  0.48002  1.0000
  C  Sn69      1.0  0.51158  0.55310  0.69288  1.0000
  C   C131      1.0  0.55063  0.54414  0.57340  1.0000
  C  Sn70      1.0  0.53949  0.49218  0.41692  1.0000
  C  Sn71      1.0  0.48824  0.44827  0.37898  1.0000
  C   C132      1.0  0.44922  0.45725  0.49838  1.0000
  C  Sn72      1.0  0.46033  0.50920  0.65493  1.0000
  O  Te69      1.0  0.52360  0.60538  0.84850  1.0000
  O  Te70      1.0  0.57919  0.48421  0.29956  1.0000
  O  Te71      1.0  0.47625  0.39596  0.22321  1.0000
  O  Te72      1.0  0.42067  0.51718  0.77223  1.0000
  Mg  Mg35      1.0  0.54355  0.40557  0.10494  1.0000
  Mg  Mg36      1.0  0.45626  0.59581  0.96682  1.0000
