data_image0
_chemical_formula_structural       C2H2C2H3C5H2C12NC6NC4N4H16C4HCHC2HC13NC6NC10N4H20C5H2C2Sn2C2HTe2HMgC2Sn2C2HTe2HMgC2Sn2C2HTe2HMgC2Sn2C2HTe2HMgC2Sn2C2HTe2HMgC2Sn2C2HTe2HMgC2Sn2C2HTe2HMgC2Sn2C2HTe2HMgC2Sn2C2HTe2HMgC2Sn2C2HTe2HMg
_chemical_formula_sum              "C112 H68 N12 Sn20 Te20 Mg10"
_cell_length_a       22.8811
_cell_length_b       21.3327
_cell_length_c       10.0959
_cell_angle_alpha    61.8615
_cell_angle_beta     85.2022
_cell_angle_gamma    86.0194

_symmetry_space_group_name_H-M    'P1'
_space_group_IT_number       1

loop_
  _space_group_symop_operation_xyz
  'x, y, z'

loop_
  _atom_site_type_symbol
  _atom_site_label
  _atom_site_symmetry_multiplicity
  _atom_site_fract_x
  _atom_site_fract_y
  _atom_site_fract_z
  _atom_site_occupancy
  C   C1        1.0  0.03525  0.89338  0.32649  1.0000
  C   C2        1.0  0.06642  0.83681  0.31914  1.0000
  H   H1        1.0  0.99299  0.90972  0.27712  1.0000
  H   H2        1.0  0.04734  0.80931  0.26669  1.0000
  C   C3        1.0  0.86792  0.05745  0.43420  1.0000
  C   C4        1.0  0.83440  0.10888  0.45715  1.0000
  H   H3        1.0  0.84694  0.02872  0.38775  1.0000
  H   H4        1.0  0.78902  0.12030  0.42614  1.0000
  H   H5        1.0  0.99428  0.06625  0.57659  1.0000
  C   C5        1.0  0.02256  0.98805  0.41337  1.0000
  C   C6        1.0  0.05729  0.93074  0.39495  1.0000
  C   C7        1.0  0.12211  0.81454  0.37896  1.0000
  C   C8        1.0  0.14577  0.85373  0.44027  1.0000
  C   C9        1.0  0.11471  0.91108  0.44522  1.0000
  H   H6        1.0  0.13493  0.93953  0.49342  1.0000
  H   H7        1.0  0.18899  0.83753  0.48524  1.0000
  C   C10       1.0  0.34115  0.48256  0.37403  1.0000
  C   C11       1.0  0.37610  0.42305  0.46498  1.0000
  C   C12       1.0  0.43635  0.42844  0.46501  1.0000
  C   C13       1.0  0.46407  0.49368  0.37865  1.0000
  C   C14       1.0  0.42856  0.55326  0.28985  1.0000
  C   C15       1.0  0.36851  0.54772  0.28546  1.0000
  C   C16       1.0  0.56761  0.44545  0.38452  1.0000
  C   C17       1.0  0.52760  0.49844  0.38538  1.0000
  C   C18       1.0  0.55087  0.55471  0.39758  1.0000
  C   C19       1.0  0.61010  0.55562  0.41875  1.0000
  C   C20       1.0  0.64964  0.50117  0.42201  1.0000
  C   C21       1.0  0.62733  0.44747  0.39821  1.0000
  N   N1        1.0  0.27957  0.47811  0.37127  1.0000
  C   C22       1.0  0.24365  0.53856  0.35505  1.0000
  C   C23       1.0  0.25411  0.57111  0.44341  1.0000
  C   C24       1.0  0.22309  0.63241  0.42530  1.0000
  C   C25       1.0  0.17895  0.66214  0.32128  1.0000
  C   C26       1.0  0.16792  0.62869  0.23483  1.0000
  C   C27       1.0  0.20010  0.56789  0.25014  1.0000
  N   N2        1.0  0.70928  0.50042  0.44978  1.0000
  C   C28       1.0  0.14516  0.72558  0.30543  1.0000
  C   C29       1.0  0.18014  0.24244  0.36286  1.0000
  C   C30       1.0  0.81385  0.74614  0.39940  1.0000
  C   C31       1.0  0.84858  0.26104  0.49728  1.0000
  N   N3        1.0  0.15561  0.75578  0.38594  1.0000
  N   N4        1.0  0.82464  0.20157  0.53235  1.0000
  N   N5        1.0  0.84355  0.74539  0.50391  1.0000
  N   N6        1.0  0.12479  0.23787  0.35339  1.0000
  H   H8        1.0  0.35553  0.37269  0.53674  1.0000
  H   H9        1.0  0.46234  0.38186  0.53797  1.0000
  H   H10       1.0  0.44863  0.60429  0.21981  1.0000
  H   H11       1.0  0.34216  0.59399  0.21323  1.0000
  H   H12       1.0  0.55176  0.40309  0.36712  1.0000
  H   H13       1.0  0.52146  0.59711  0.39758  1.0000
  H   H14       1.0  0.62575  0.59795  0.43607  1.0000
  H   H15       1.0  0.65689  0.40709  0.39057  1.0000
  H   H16       1.0  0.28672  0.54708  0.52707  1.0000
  H   H17       1.0  0.23108  0.65810  0.49260  1.0000
  H   H18       1.0  0.13489  0.65203  0.15161  1.0000
  H   H19       1.0  0.19245  0.54408  0.17900  1.0000
  H   H20       1.0  0.11146  0.74568  0.22211  1.0000
  H   H21       1.0  0.21201  0.20157  0.36169  1.0000
  H   H22       1.0  0.80743  0.79399  0.29146  1.0000
  H   H23       1.0  0.89379  0.27168  0.44759  1.0000
  C   C32       1.0  0.92759  0.04238  0.46849  1.0000
  C   C33       1.0  0.85913  0.14871  0.51520  1.0000
  C   C34       1.0  0.91744  0.13153  0.55813  1.0000
  C   C35       1.0  0.95038  0.07960  0.53633  1.0000
  H   H24       1.0  0.93565  0.15778  0.61450  1.0000
  C   C36       1.0  0.96262  0.98679  0.44361  1.0000
  H   H25       1.0  0.96588  0.85290  0.16965  1.0000
  C   C37       1.0  0.91134  0.80073  0.09134  1.0000
  C   C38       1.0  0.93804  0.85957  0.08165  1.0000
  H   H26       1.0  0.91795  0.74824  0.18621  1.0000
  C   C39       1.0  0.02257  0.99181  0.91876  1.0000
  C   C40       1.0  0.34366  0.49145  0.84507  1.0000
  C   C41       1.0  0.36561  0.46737  0.98676  1.0000
  C   C42       1.0  0.42521  0.47050  0.00114  1.0000
  C   C43       1.0  0.46466  0.49624  0.87351  1.0000
  C   C44       1.0  0.44218  0.51842  0.73211  1.0000
  C   C45       1.0  0.38221  0.51724  0.71711  1.0000
  C   C46       1.0  0.57105  0.48297  0.80180  1.0000
  C   C47       1.0  0.52789  0.50049  0.88785  1.0000
  C   C48       1.0  0.54647  0.52234  0.98863  1.0000
  C   C49       1.0  0.60584  0.52558  0.00504  1.0000
  C   C50       1.0  0.64833  0.50629  0.92128  1.0000
  C   C51       1.0  0.63050  0.48586  0.81791  1.0000
  N   N7        1.0  0.28110  0.49114  0.83474  1.0000
  C   C52       1.0  0.29228  0.38639  0.79560  1.0000
  C   C53       1.0  0.25755  0.42919  0.84562  1.0000
  C   C54       1.0  0.20046  0.40717  0.90935  1.0000
  C   C55       1.0  0.17765  0.34826  0.91060  1.0000
  C   C56       1.0  0.21121  0.30745  0.85360  1.0000
  C   C57       1.0  0.26949  0.32636  0.80126  1.0000
  N   N8        1.0  0.70923  0.50552  0.94401  1.0000
  C   C58       1.0  0.71885  0.37710  0.03615  1.0000
  C   C59       1.0  0.74421  0.44457  0.96582  1.0000
  C   C60       1.0  0.80365  0.44961  0.91403  1.0000
  C   C61       1.0  0.83549  0.38955  0.92534  1.0000
  C   C62       1.0  0.80940  0.32301  0.98719  1.0000
  C   C63       1.0  0.75076  0.31766  0.04557  1.0000
  C   C64       1.0  0.14342  0.72674  0.82410  1.0000
  C   C65       1.0  0.18713  0.24688  0.84935  1.0000
  C   C66       1.0  0.80807  0.74912  0.91642  1.0000
  C   C67       1.0  0.84219  0.26344  0.98180  1.0000
  N   N9        1.0  0.16289  0.76997  0.86594  1.0000
  N   N10       1.0  0.81823  0.20420  0.01457  1.0000
  N   N11       1.0  0.85161  0.74524  0.99454  1.0000
  N   N12       1.0  0.13141  0.24010  0.85120  1.0000
  H   H27       1.0  0.33482  0.44763  0.08446  1.0000
  H   H28       1.0  0.44138  0.45252  0.11223  1.0000
  H   H29       1.0  0.47189  0.53825  0.63208  1.0000
  H   H30       1.0  0.36593  0.53626  0.60590  1.0000
  H   H31       1.0  0.55799  0.46659  0.72187  1.0000
  H   H32       1.0  0.51387  0.53679  0.05533  1.0000
  H   H33       1.0  0.61950  0.54186  0.08452  1.0000
  H   H34       1.0  0.66348  0.47158  0.75178  1.0000
  H   H35       1.0  0.33694  0.40097  0.75100  1.0000
  H   H36       1.0  0.17451  0.43604  0.95936  1.0000
  H   H37       1.0  0.13367  0.33153  0.95945  1.0000
  H   H38       1.0  0.29672  0.29428  0.76063  1.0000
  H   H39       1.0  0.67352  0.37284  0.08029  1.0000
  H   H40       1.0  0.82403  0.50094  0.86151  1.0000
  H   H41       1.0  0.88093  0.39439  0.88082  1.0000
  H   H42       1.0  0.73112  0.26580  0.09705  1.0000
  H   H43       1.0  0.09843  0.73089  0.78926  1.0000
  H   H44       1.0  0.21918  0.20759  0.84185  1.0000
  H   H45       1.0  0.78668  0.80007  0.84079  1.0000
  H   H46       1.0  0.88846  0.27269  0.94057  1.0000
  C   C68       1.0  0.96246  0.98932  0.94468  1.0000
  C   C69       1.0  0.93039  0.92741  0.95888  1.0000
  C   C70       1.0  0.89328  0.93436  0.84795  1.0000
  C   C71       1.0  0.86642  0.87594  0.85679  1.0000
  C   C72       1.0  0.87500  0.80763  0.97887  1.0000
  H   H47       1.0  0.88788  0.98558  0.74903  1.0000
  H   H48       1.0  0.84105  0.88337  0.76379  1.0000
  C   C73       1.0  0.85074  0.06542  0.93068  1.0000
  C   C74       1.0  0.91020  0.04726  0.95464  1.0000
  C  Sn1       1.0  0.96500  0.30083  0.01653  1.0000
  C  Sn2       1.0  0.93706  0.35199  0.05506  1.0000
  C   C75       1.0  0.87755  0.36976  0.03074  1.0000
  C   C76       1.0  0.82315  0.11586  0.96871  1.0000
  H   H49       1.0  0.82610  0.04034  0.88276  1.0000
  O  Te1       1.0  0.02437  0.28208  0.03967  1.0000
  O  Te2       1.0  0.96823  0.38483  0.11713  1.0000
  H   H50       1.0  0.77711  0.12990  0.95025  1.0000
  Mg  Mg1       1.0  0.04822  0.34155  0.12723  1.0000
  C   C77       1.0  0.72600  0.68645  0.82071  1.0000
  C   C78       1.0  0.76879  0.68973  0.90804  1.0000
  C  Sn3       1.0  0.81896  0.84892  0.01262  1.0000
  C  Sn4       1.0  0.80335  0.78216  0.02981  1.0000
  C   C79       1.0  0.73795  0.55794  0.94183  1.0000
  C   C80       1.0  0.71059  0.62063  0.83755  1.0000
  H   H51       1.0  0.70486  0.73495  0.73997  1.0000
  O  Te3       1.0  0.86160  0.85315  0.09900  1.0000
  O  Te4       1.0  0.83025  0.71905  0.13345  1.0000
  H   H52       1.0  0.67749  0.61807  0.76989  1.0000
  Mg  Mg2       1.0  0.88580  0.75234  0.22521  1.0000
  C   C81       1.0  0.04356  0.13745  0.25201  1.0000
  C   C82       1.0  0.05510  0.06640  0.35515  1.0000
  C  Sn5       1.0  0.09197  0.04937  0.47185  1.0000
  C  Sn6       1.0  0.11770  0.10460  0.48528  1.0000
  C   C83       1.0  0.10584  0.17551  0.38158  1.0000
  C   C84       1.0  0.06889  0.19196  0.26520  1.0000
  H   H53       1.0  0.01494  0.15018  0.16201  1.0000
  O  Te5       1.0  0.10305  0.97811  0.57390  1.0000
  O  Te6       1.0  0.15470  0.08907  0.60087  1.0000
  H   H54       1.0  0.05994  0.24697  0.18541  1.0000
  Mg  Mg3       1.0  0.15646  0.98382  0.71216  1.0000
  C   C85       1.0  0.16894  0.36167  0.42582  1.0000
  C   C86       1.0  0.19398  0.31463  0.37512  1.0000
  C  Sn7       1.0  0.25362  0.31718  0.33058  1.0000
  C  Sn8       1.0  0.28874  0.36782  0.33709  1.0000
  C   C87       1.0  0.26329  0.41461  0.38809  1.0000
  C   C88       1.0  0.20356  0.41161  0.43233  1.0000
  H   H55       1.0  0.12274  0.35933  0.46013  1.0000
  O  Te7       1.0  0.27792  0.26981  0.28016  1.0000
  O  Te8       1.0  0.34847  0.37151  0.29332  1.0000
  H   H56       1.0  0.18420  0.44801  0.47167  1.0000
  Mg  Mg4       1.0  0.36137  0.29562  0.23269  1.0000
  C   C89       1.0  0.10582  0.89038  0.80119  1.0000
  C   C90       1.0  0.11665  0.92576  0.88265  1.0000
  C  Sn9       1.0  0.16921  0.91269  0.95398  1.0000
  C  Sn10      1.0  0.21165  0.86327  0.94333  1.0000
  C   C91       1.0  0.20041  0.82818  0.86148  1.0000
  C   C92       1.0  0.14766  0.84165  0.79058  1.0000
  H   H57       1.0  0.06501  0.90082  0.74626  1.0000
  O  Te9       1.0  0.20189  0.16999  0.03496  1.0000
  O  Te10      1.0  0.28713  0.07073  0.01348  1.0000
  H   H58       1.0  0.07458  0.81428  0.72744  1.0000
  Mg  Mg5       1.0  0.28064  0.13281  0.11091  1.0000
  C   C93       1.0  0.72957  0.35072  0.59352  1.0000
  C   C94       1.0  0.74358  0.42246  0.51944  1.0000
  C  Sn11      1.0  0.79618  0.44380  0.43219  1.0000
  C  Sn12      1.0  0.83538  0.39223  0.41904  1.0000
  C   C95       1.0  0.82094  0.32059  0.49351  1.0000
  C   C96       1.0  0.76820  0.29983  0.58056  1.0000
  H   H59       1.0  0.68875  0.33465  0.66080  1.0000
  O  Te11      1.0  0.80951  0.51569  0.35898  1.0000
  O  Te12      1.0  0.88823  0.41209  0.33253  1.0000
  H   H60       1.0  0.75734  0.24428  0.63782  1.0000
  Mg  Mg6       1.0  0.88683  0.51650  0.25419  1.0000
  C   C97       1.0  0.15853  0.60813  0.76571  1.0000
  C   C98       1.0  0.17135  0.65505  0.81902  1.0000
  C  Sn13      1.0  0.22624  0.65132  0.87390  1.0000
  C  Sn14      1.0  0.26902  0.59961  0.87526  1.0000
  C   C99       1.0  0.25578  0.55294  0.82159  1.0000
  C   C100      1.0  0.20070  0.55713  0.76696  1.0000
  H   H61       1.0  0.11593  0.61139  0.72337  1.0000
  O  Te13      1.0  0.23831  0.69859  0.92679  1.0000
  O  Te14      1.0  0.32424  0.59473  0.92944  1.0000
  H   H62       1.0  0.19081  0.52082  0.72560  1.0000
  Mg  Mg7       1.0  0.31986  0.67095  0.98955  1.0000
  C   C101      1.0  0.10517  0.05821  0.01733  1.0000
  C   C102      1.0  0.04051  0.83067  0.93169  1.0000
  C  Sn15      1.0  0.02426  0.88957  0.79840  1.0000
  C  Sn16      1.0  0.05073  0.95566  0.75022  1.0000
  C   C103      1.0  0.09283  0.96112  0.83664  1.0000
  C   C104      1.0  0.10875  0.90185  0.96987  1.0000
  H   H63       1.0  0.11752  0.01234  0.12037  1.0000
  O  Te15      1.0  0.98212  0.88263  0.71422  1.0000
  O  Te16      1.0  0.03532  0.01537  0.61743  1.0000
  H   H64       1.0  0.16393  0.12802  0.03610  1.0000
  Mg  Mg8       1.0  0.97571  0.97927  0.54143  1.0000
  C   C105      1.0  0.86217  0.89610  0.34379  1.0000
  C   C106      1.0  0.86692  0.82425  0.44942  1.0000
  C  Sn17      1.0  0.90247  0.80233  0.57064  1.0000
  C  Sn18      1.0  0.93377  0.85342  0.58612  1.0000
  C   C107      1.0  0.99342  0.92518  0.47990  1.0000
  C   C108      1.0  0.95774  0.94652  0.35900  1.0000
  H   H65       1.0  0.83454  0.91262  0.25029  1.0000
  O  Te17      1.0  0.90674  0.73033  0.67512  1.0000
  O  Te18      1.0  0.96960  0.83298  0.70623  1.0000
  H   H66       1.0  0.95404  0.00216  0.27729  1.0000
  Mg  Mg9       1.0  0.96117  0.72865  0.81944  1.0000
  C   C109      1.0  0.72934  0.64885  0.28719  1.0000
  C   C110      1.0  0.73395  0.57796  0.39817  1.0000
  C  Sn19      1.0  0.76472  0.55969  0.52599  1.0000
  C  Sn20      1.0  0.79130  0.61350  0.54271  1.0000
  C   C111      1.0  0.78639  0.68427  0.43110  1.0000
  C   C112      1.0  0.75552  0.70197  0.30363  1.0000
  H   H67       1.0  0.70543  0.66256  0.18860  1.0000
  O  Te19      1.0  0.76892  0.48860  0.63575  1.0000
  O  Te20      1.0  0.82228  0.59672  0.66936  1.0000
  H   H68       1.0  0.75192  0.75686  0.21777  1.0000
  Mg  Mg10      1.0  0.81579  0.49227  0.78810  1.0000
