data_image0
_chemical_formula_structural       C12H6C2N4C2H4C8H4C12H6C2N4C2H4C8H4C6H4C6H4SnCSn2CSnTe4Mg2SnCSn2CSnTe4Mg2SnCSn2CSnTe4Mg2SnCSn2CSnTe4Mg2
_chemical_formula_sum              "C68 H36 N8 Sn16 Te16 Mg8"
_cell_length_a       15.461
_cell_length_b       15.916
_cell_length_c       9.48908
_cell_angle_alpha    91.9009
_cell_angle_beta     88.5841
_cell_angle_gamma    87.2251

_symmetry_space_group_name_H-M    'P1'
_space_group_IT_number       1

loop_
  _space_group_symop_operation_xyz
  'x, y, z'

loop_
  _atom_site_type_symbol
  _atom_site_label
  _atom_site_symmetry_multiplicity
  _atom_site_fract_x
  _atom_site_fract_y
  _atom_site_fract_z
  _atom_site_occupancy
  C   C1        1.0  0.27164  0.47932  0.03050  1.0000
  C   C2        1.0  0.72811  0.52500  0.04482  1.0000
  C   C3        1.0  0.32629  0.40799  0.05225  1.0000
  C   C4        1.0  0.67138  0.59662  0.06071  1.0000
  C   C5        1.0  0.41498  0.41806  0.07097  1.0000
  C   C6        1.0  0.58199  0.58670  0.07389  1.0000
  C   C7        1.0  0.45155  0.49731  0.06064  1.0000
  C   C8        1.0  0.54676  0.50654  0.06535  1.0000
  C   C9        1.0  0.39554  0.56699  0.03777  1.0000
  C   C10       1.0  0.60484  0.43639  0.05157  1.0000
  C   C11       1.0  0.30578  0.55893  0.02550  1.0000
  C   C12       1.0  0.69504  0.44485  0.04227  1.0000
  H   H1        1.0  0.20291  0.47094  0.01651  1.0000
  H   H2        1.0  0.79724  0.53372  0.03250  1.0000
  H   H3        1.0  0.45605  0.36256  0.09149  1.0000
  H   H4        1.0  0.53966  0.64320  0.08677  1.0000
  H   H5        1.0  0.41930  0.62966  0.02635  1.0000
  H   H6        1.0  0.58260  0.37272  0.04365  1.0000
  C   C13       1.0  0.24765  0.63295  0.00770  1.0000
  C   C14       1.0  0.75416  0.37031  0.02593  1.0000
  N   N1        1.0  0.27558  0.70756  0.99445  1.0000
  N   N2        1.0  0.72627  0.29520  0.02110  1.0000
  N   N3        1.0  0.21425  0.31182  0.00986  1.0000
  N   N4        1.0  0.78286  0.69179  0.01355  1.0000
  C   C15       1.0  0.29256  0.32344  0.04761  1.0000
  C   C16       1.0  0.70415  0.68134  0.05502  1.0000
  H   H7        1.0  0.17810  0.62120  0.00709  1.0000
  H   H8        1.0  0.82363  0.38179  0.01564  1.0000
  H   H9        1.0  0.33869  0.27124  0.07094  1.0000
  H   H10       1.0  0.65752  0.73421  0.08226  1.0000
  C   C17       1.0  0.95545  0.00110  0.99324  1.0000
  C   C18       1.0  0.04492  0.99995  0.98951  1.0000
  C   C19       1.0  0.09367  0.07825  0.98682  1.0000
  C   C20       1.0  0.16379  0.08848  0.07711  1.0000
  C   C21       1.0  0.20650  0.16341  0.08552  1.0000
  C   C22       1.0  0.18053  0.23172  0.00277  1.0000
  C   C23       1.0  0.11261  0.22057  0.90863  1.0000
  C   C24       1.0  0.07143  0.14513  0.89963  1.0000
  H   H11       1.0  0.18269  0.03737  0.14507  1.0000
  H   H12       1.0  0.25736  0.17031  0.16158  1.0000
  H   H13       1.0  0.09358  0.27254  0.84278  1.0000
  H   H14       1.0  0.01917  0.13750  0.82690  1.0000
  C   C25       1.0  0.27020  0.47697  0.51476  1.0000
  C   C26       1.0  0.72817  0.52089  0.53348  1.0000
  C   C27       1.0  0.32592  0.40544  0.52888  1.0000
  C   C28       1.0  0.67184  0.59300  0.53821  1.0000
  C   C29       1.0  0.41513  0.41509  0.54009  1.0000
  C   C30       1.0  0.58211  0.58392  0.54354  1.0000
  C   C31       1.0  0.45117  0.49470  0.53275  1.0000
  C   C32       1.0  0.54642  0.50391  0.53720  1.0000
  C   C33       1.0  0.39419  0.56456  0.51674  1.0000
  C   C34       1.0  0.60417  0.43331  0.53064  1.0000
  C   C35       1.0  0.30411  0.55656  0.50929  1.0000
  C   C36       1.0  0.69450  0.44104  0.53065  1.0000
  H   H15       1.0  0.20101  0.46877  0.50647  1.0000
  H   H16       1.0  0.79767  0.52907  0.53125  1.0000
  H   H17       1.0  0.45664  0.35884  0.55310  1.0000
  H   H18       1.0  0.54003  0.64079  0.55072  1.0000
  H   H19       1.0  0.41743  0.62758  0.50834  1.0000
  H   H20       1.0  0.58188  0.36965  0.52312  1.0000
  C   C37       1.0  0.24550  0.63077  0.49640  1.0000
  C   C38       1.0  0.75343  0.36611  0.52379  1.0000
  N   N5        1.0  0.27380  0.70506  0.48208  1.0000
  N   N6        1.0  0.72512  0.29116  0.51665  1.0000
  N   N7        1.0  0.21216  0.31021  0.49877  1.0000
  N   N8        1.0  0.78694  0.68556  0.50031  1.0000
  C   C39       1.0  0.29236  0.32094  0.52544  1.0000
  C   C40       1.0  0.70611  0.67697  0.53111  1.0000
  H   H21       1.0  0.17577  0.61952  0.49972  1.0000
  H   H22       1.0  0.82313  0.37750  0.52148  1.0000
  H   H23       1.0  0.33951  0.26815  0.54063  1.0000
  H   H24       1.0  0.65920  0.73090  0.54792  1.0000
  C   C41       1.0  0.95522  0.99758  0.49051  1.0000
  C   C42       1.0  0.04458  0.99846  0.48656  1.0000
  C   C43       1.0  0.89727  0.07503  0.50025  1.0000
  C   C44       1.0  0.82108  0.07977  0.42132  1.0000
  C   C45       1.0  0.76526  0.15101  0.42817  1.0000
  C   C46       1.0  0.78373  0.22127  0.51422  1.0000
  C   C47       1.0  0.85790  0.21619  0.59764  1.0000
  C   C48       1.0  0.91307  0.14449  0.58995  1.0000
  H   H25       1.0  0.97010  0.14180  0.65421  1.0000
  H   H26       1.0  0.80564  0.02645  0.35351  1.0000
  H   H27       1.0  0.70759  0.15470  0.36481  1.0000
  H   H28       1.0  0.87032  0.26752  0.67190  1.0000
  C   C49       1.0  0.10227  0.92112  0.48845  1.0000
  C   C50       1.0  0.17560  0.91260  0.39679  1.0000
  C   C51       1.0  0.23123  0.84129  0.39495  1.0000
  C   C52       1.0  0.21509  0.77486  0.48484  1.0000
  C   C53       1.0  0.14332  0.78374  0.57986  1.0000
  C   C54       1.0  0.08868  0.85569  0.58106  1.0000
  H   H29       1.0  0.03386  0.86200  0.65481  1.0000
  H   H30       1.0  0.18810  0.96278  0.32508  1.0000
  H   H31       1.0  0.28642  0.83457  0.32143  1.0000
  H   H32       1.0  0.13297  0.73546  0.65625  1.0000
  C   C55       1.0  0.90885  0.91802  0.48746  1.0000
  C   C56       1.0  0.83593  0.90982  0.57721  1.0000
  C   C57       1.0  0.79337  0.83487  0.58244  1.0000
  C   C58       1.0  0.82213  0.76472  0.49625  1.0000
  C   C59       1.0  0.89432  0.77288  0.40496  1.0000
  C   C60       1.0  0.93574  0.84806  0.40006  1.0000
  H   H33       1.0  0.81468  0.96279  0.64692  1.0000
  H   H34       1.0  0.74031  0.82928  0.65839  1.0000
  H   H35       1.0  0.91620  0.71906  0.33755  1.0000
  H   H36       1.0  0.99191  0.85269  0.33059  1.0000
  C  Sn1       1.0  0.88949  0.21917  0.06894  1.0000
  C   C61       1.0  0.81110  0.23261  0.00099  1.0000
  C  Sn2       1.0  0.75418  0.18574  0.93756  1.0000
  C  Sn3       1.0  0.79258  0.10315  0.94222  1.0000
  C   C62       1.0  0.88710  0.06920  0.01015  1.0000
  C  Sn4       1.0  0.92788  0.13658  0.07359  1.0000
  O  Te1       1.0  0.92906  0.28749  0.13164  1.0000
  O  Te2       1.0  0.67586  0.20074  0.87021  1.0000
  O  Te3       1.0  0.75293  0.03481  0.87944  1.0000
  O  Te4       1.0  0.00615  0.12160  0.14093  1.0000
  Mg  Mg1       1.0  0.64685  0.08720  0.80038  1.0000
  Mg  Mg2       1.0  0.03519  0.23509  0.21086  1.0000
  C  Sn5       1.0  0.10607  0.84820  0.11666  1.0000
  C   C63       1.0  0.11194  0.91827  0.03264  1.0000
  C  Sn6       1.0  0.15249  0.93625  0.91554  1.0000
  C  Sn7       1.0  0.20441  0.86208  0.88165  1.0000
  C   C64       1.0  0.19852  0.79205  0.96562  1.0000
  C  Sn8       1.0  0.15799  0.77403  0.08277  1.0000
  O  Te5       1.0  0.04890  0.85217  0.23322  1.0000
  O  Te6       1.0  0.15725  0.00711  0.83316  1.0000
  O  Te7       1.0  0.26161  0.85816  0.76498  1.0000
  O  Te8       1.0  0.15320  0.70322  0.16511  1.0000
  Mg  Mg3       1.0  0.24490  0.97092  0.68505  1.0000
  Mg  Mg4       1.0  0.06555  0.73932  0.31319  1.0000
  C  Sn9       1.0  0.78085  0.86789  0.07503  1.0000
  C   C65       1.0  0.78054  0.81348  0.99567  1.0000
  C  Sn10      1.0  0.85739  0.79983  0.91593  1.0000
  C  Sn11      1.0  0.91970  0.86237  0.91555  1.0000
  C   C66       1.0  0.90381  0.93725  0.99488  1.0000
  C  Sn12      1.0  0.84316  0.93043  0.07465  1.0000
  O  Te9       1.0  0.70358  0.88019  0.15398  1.0000
  O  Te10      1.0  0.87180  0.72441  0.83740  1.0000
  O  Te11      1.0  0.99701  0.85000  0.83650  1.0000
  O  Te12      1.0  0.87858  0.00578  0.15316  1.0000
  Mg  Mg5       1.0  0.98697  0.73696  0.74678  1.0000
  Mg  Mg6       1.0  0.71362  0.99328  0.24386  1.0000
  C  Sn13      1.0  0.15972  0.10940  0.60858  1.0000
  C   C67       1.0  0.09167  0.08787  0.52233  1.0000
  C  Sn14      1.0  0.07010  0.13660  0.40740  1.0000
  C  Sn15      1.0  0.11757  0.20832  0.37798  1.0000
  C   C68       1.0  0.18558  0.22981  0.46418  1.0000
  C  Sn16      1.0  0.20719  0.18112  0.57917  1.0000
  O  Te13      1.0  0.18016  0.05978  0.72291  1.0000
  O  Te14      1.0  0.00179  0.11384  0.32271  1.0000
  O  Te15      1.0  0.09707  0.25795  0.26354  1.0000
  O  Te16      1.0  0.27547  0.20385  0.66380  1.0000
  Mg  Mg7       1.0  0.99863  0.20128  0.17907  1.0000
  Mg  Mg8       1.0  0.27871  0.11643  0.80742  1.0000
