data_image0
_chemical_formula_structural       C12H6C2N4C2H4C14H6C2N4C2H4C4Sn2C2HTe2HMgC2Sn2C2HTe2HMgC2Sn2C2HTe2HMgC2Sn2C2HTe2HMgC2Sn2C2HTe2HMgC2Sn2C2HTe2HMgC2Sn2C2HTe2HMgC2Sn2C2HTe2HMg
_chemical_formula_sum              "C68 H36 N8 Sn16 Te16 Mg8"
_cell_length_a       15.461
_cell_length_b       15.916
_cell_length_c       9.48908
_cell_angle_alpha    91.9009
_cell_angle_beta     88.5841
_cell_angle_gamma    87.2251

_symmetry_space_group_name_H-M    'P1'
_space_group_IT_number       1

loop_
  _space_group_symop_operation_xyz
  'x, y, z'

loop_
  _atom_site_type_symbol
  _atom_site_label
  _atom_site_symmetry_multiplicity
  _atom_site_fract_x
  _atom_site_fract_y
  _atom_site_fract_z
  _atom_site_occupancy
  C   C1        1.0  0.27164  0.47932  0.03050  1.0000
  C   C2        1.0  0.72811  0.52500  0.04482  1.0000
  C   C3        1.0  0.32629  0.40799  0.05225  1.0000
  C   C4        1.0  0.67138  0.59662  0.06071  1.0000
  C   C5        1.0  0.41498  0.41806  0.07097  1.0000
  C   C6        1.0  0.58199  0.58670  0.07389  1.0000
  C   C7        1.0  0.45155  0.49731  0.06064  1.0000
  C   C8        1.0  0.54676  0.50654  0.06535  1.0000
  C   C9        1.0  0.39554  0.56699  0.03777  1.0000
  C   C10       1.0  0.60484  0.43639  0.05157  1.0000
  C   C11       1.0  0.30578  0.55893  0.02550  1.0000
  C   C12       1.0  0.69504  0.44485  0.04227  1.0000
  H   H1        1.0  0.20291  0.47094  0.01651  1.0000
  H   H2        1.0  0.79724  0.53372  0.03250  1.0000
  H   H3        1.0  0.45605  0.36256  0.09149  1.0000
  H   H4        1.0  0.53966  0.64320  0.08677  1.0000
  H   H5        1.0  0.41930  0.62966  0.02635  1.0000
  H   H6        1.0  0.58260  0.37272  0.04365  1.0000
  C   C13       1.0  0.24765  0.63295  0.00770  1.0000
  C   C14       1.0  0.75416  0.37031  0.02593  1.0000
  N   N1        1.0  0.27558  0.70756  0.99445  1.0000
  N   N2        1.0  0.72627  0.29520  0.02110  1.0000
  N   N3        1.0  0.21425  0.31182  0.00986  1.0000
  N   N4        1.0  0.78286  0.69179  0.01355  1.0000
  C   C15       1.0  0.29256  0.32344  0.04761  1.0000
  C   C16       1.0  0.70415  0.68134  0.05502  1.0000
  H   H7        1.0  0.17810  0.62120  0.00709  1.0000
  H   H8        1.0  0.82363  0.38179  0.01564  1.0000
  H   H9        1.0  0.33869  0.27124  0.07094  1.0000
  H   H10       1.0  0.65752  0.73421  0.08226  1.0000
  C   C17       1.0  0.95545  0.00110  0.99324  1.0000
  C   C18       1.0  0.04492  0.99995  0.98951  1.0000
  C   C19       1.0  0.27020  0.47697  0.51476  1.0000
  C   C20       1.0  0.72817  0.52089  0.53348  1.0000
  C   C21       1.0  0.32592  0.40544  0.52888  1.0000
  C   C22       1.0  0.67184  0.59300  0.53821  1.0000
  C   C23       1.0  0.41513  0.41509  0.54009  1.0000
  C   C24       1.0  0.58211  0.58392  0.54354  1.0000
  C   C25       1.0  0.45117  0.49470  0.53275  1.0000
  C   C26       1.0  0.54642  0.50391  0.53720  1.0000
  C   C27       1.0  0.39419  0.56456  0.51674  1.0000
  C   C28       1.0  0.60417  0.43331  0.53064  1.0000
  C   C29       1.0  0.30411  0.55656  0.50929  1.0000
  C   C30       1.0  0.69450  0.44104  0.53065  1.0000
  H   H11       1.0  0.20101  0.46877  0.50647  1.0000
  H   H12       1.0  0.79767  0.52907  0.53125  1.0000
  H   H13       1.0  0.45664  0.35884  0.55310  1.0000
  H   H14       1.0  0.54003  0.64079  0.55072  1.0000
  H   H15       1.0  0.41743  0.62758  0.50834  1.0000
  H   H16       1.0  0.58188  0.36965  0.52312  1.0000
  C   C31       1.0  0.24550  0.63077  0.49640  1.0000
  C   C32       1.0  0.75343  0.36611  0.52379  1.0000
  N   N5        1.0  0.27380  0.70506  0.48208  1.0000
  N   N6        1.0  0.72512  0.29116  0.51665  1.0000
  N   N7        1.0  0.21216  0.31021  0.49877  1.0000
  N   N8        1.0  0.78694  0.68556  0.50031  1.0000
  C   C33       1.0  0.29236  0.32094  0.52544  1.0000
  C   C34       1.0  0.70611  0.67697  0.53111  1.0000
  H   H17       1.0  0.17577  0.61952  0.49972  1.0000
  H   H18       1.0  0.82313  0.37750  0.52148  1.0000
  H   H19       1.0  0.33951  0.26815  0.54063  1.0000
  H   H20       1.0  0.65920  0.73090  0.54792  1.0000
  C   C35       1.0  0.95522  0.99758  0.49051  1.0000
  C   C36       1.0  0.04458  0.99846  0.48656  1.0000
  C   C37       1.0  0.77345  0.13464  0.91119  1.0000
  C   C38       1.0  0.77626  0.20670  0.99889  1.0000
  C  Sn1       1.0  0.86184  0.19623  0.08848  1.0000
  C  Sn2       1.0  0.92959  0.13288  0.09003  1.0000
  C   C39       1.0  0.92620  0.06106  0.00182  1.0000
  C   C40       1.0  0.84026  0.07215  0.91262  1.0000
  H   H21       1.0  0.71951  0.12735  0.84211  1.0000
  O  Te1       1.0  0.86361  0.26859  0.17546  1.0000
  O  Te2       1.0  0.99972  0.14135  0.17851  1.0000
  H   H22       1.0  0.78829  0.01638  0.84466  1.0000
  Mg  Mg1       1.0  0.97289  0.25131  0.27762  1.0000
  C   C41       1.0  0.12077  0.79523  0.09507  1.0000
  C   C42       1.0  0.19531  0.77487  0.01227  1.0000
  C  Sn3       1.0  0.20978  0.85278  0.91694  1.0000
  C  Sn4       1.0  0.16485  0.93194  0.90454  1.0000
  C   C43       1.0  0.09037  0.95173  0.98793  1.0000
  C   C44       1.0  0.07643  0.87331  0.08295  1.0000
  H   H23       1.0  0.09748  0.75047  0.16865  1.0000
  O  Te3       1.0  0.28434  0.83142  0.83497  1.0000
  O  Te4       1.0  0.19409  0.99046  0.81015  1.0000
  H   H24       1.0  0.01874  0.88911  0.14712  1.0000
  Mg  Mg2       1.0  0.29872  0.93224  0.72140  1.0000
  C   C45       1.0  0.18234  0.10029  0.09093  1.0000
  C   C46       1.0  0.11015  0.08025  0.01306  1.0000
  C  Sn5       1.0  0.05820  0.15832  0.92004  1.0000
  C  Sn6       1.0  0.09556  0.23731  0.90489  1.0000
  C   C47       1.0  0.16781  0.25673  0.98320  1.0000
  C   C48       1.0  0.21925  0.17817  0.07601  1.0000
  H   H25       1.0  0.20964  0.05538  0.16269  1.0000
  O  Te5       1.0  0.98605  0.13730  0.84308  1.0000
  O  Te6       1.0  0.06114  0.29597  0.81263  1.0000
  H   H26       1.0  0.27517  0.19368  0.13622  1.0000
  Mg  Mg3       1.0  0.96248  0.23823  0.73085  1.0000
  C   C49       1.0  0.81821  0.90391  0.10393  1.0000
  C   C50       1.0  0.88947  0.92182  0.01856  1.0000
  C  Sn7       1.0  0.90696  0.88291  0.91759  1.0000
  C  Sn8       1.0  0.86844  0.80412  0.90203  1.0000
  C   C51       1.0  0.79713  0.78684  0.98788  1.0000
  C   C52       1.0  0.78015  0.82623  0.08861  1.0000
  H   H27       1.0  0.79251  0.95030  0.18182  1.0000
  O  Te7       1.0  0.97821  0.90181  0.83321  1.0000
  O  Te8       1.0  0.90078  0.74358  0.80191  1.0000
  H   H28       1.0  0.72495  0.81237  0.15463  1.0000
  Mg  Mg4       1.0  0.99890  0.79881  0.71179  1.0000
  C   C53       1.0  0.79993  0.09021  0.41163  1.0000
  C   C54       1.0  0.87912  0.07543  0.47656  1.0000
  C  Sn9       1.0  0.90979  0.13534  0.57140  1.0000
  C  Sn10      1.0  0.86012  0.21139  0.60161  1.0000
  C   C55       1.0  0.78095  0.22555  0.53617  1.0000
  C   C56       1.0  0.75088  0.16518  0.44140  1.0000
  H   H29       1.0  0.77664  0.04349  0.33836  1.0000
  O  Te9       1.0  0.98906  0.11958  0.63531  1.0000
  O  Te10      1.0  0.88923  0.27232  0.69602  1.0000
  H   H30       1.0  0.68954  0.17662  0.39121  1.0000
  Mg  Mg5       1.0  0.00130  0.22187  0.75641  1.0000
  C   C57       1.0  0.12478  0.79640  0.59735  1.0000
  C   C58       1.0  0.19548  0.77369  0.50716  1.0000
  C  Sn11      1.0  0.22261  0.82894  0.40549  1.0000
  C  Sn12      1.0  0.17802  0.90836  0.39417  1.0000
  C   C59       1.0  0.10740  0.93052  0.48496  1.0000
  C   C60       1.0  0.08078  0.87474  0.58630  1.0000
  H   H31       1.0  0.10421  0.75327  0.67581  1.0000
  O  Te11      1.0  0.29335  0.80523  0.31619  1.0000
  O  Te12      1.0  0.20378  0.96480  0.29353  1.0000
  H   H32       1.0  0.02607  0.89237  0.65617  1.0000
  Mg  Mg6       1.0  0.30389  0.90378  0.19592  1.0000
  C   C61       1.0  0.18259  0.09899  0.58170  1.0000
  C   C62       1.0  0.10899  0.07890  0.50749  1.0000
  C  Sn13      1.0  0.07085  0.13677  0.41736  1.0000
  C  Sn14      1.0  0.10723  0.21616  0.40141  1.0000
  C   C63       1.0  0.18091  0.23563  0.47605  1.0000
  C   C64       1.0  0.21853  0.17727  0.56599  1.0000
  H   H33       1.0  0.21173  0.05382  0.65124  1.0000
  O  Te13      1.0  0.99731  0.11569  0.34405  1.0000
  O  Te14      1.0  0.07044  0.27515  0.31199  1.0000
  H   H34       1.0  0.27555  0.19282  0.62337  1.0000
  Mg  Mg7       1.0  0.97060  0.21718  0.23473  1.0000
  C   C65       1.0  0.91072  0.78567  0.38692  1.0000
  C   C66       1.0  0.84314  0.76389  0.47698  1.0000
  C  Sn15      1.0  0.80445  0.82358  0.57304  1.0000
  C  Sn16      1.0  0.83409  0.90658  0.57877  1.0000
  C   C67       1.0  0.90170  0.92776  0.48814  1.0000
  C   C68       1.0  0.93998  0.86753  0.39246  1.0000
  H   H35       1.0  0.94031  0.73908  0.31283  1.0000
  O  Te15      1.0  0.73702  0.80075  0.66229  1.0000
  O  Te16      1.0  0.79656  0.96749  0.67373  1.0000
  H   H36       1.0  0.99226  0.88442  0.32268  1.0000
  Mg  Mg8       1.0  0.70662  0.90596  0.77367  1.0000
