data_image0
_chemical_formula_structural       C12H6C2N4C2H4C14H6C2N4C2H4C2SnCSn2CSnTe4Mg2SnCSn2CSnTe4Mg2SnCSn2CSnTe4Mg2SnCSn2CSnTe4Mg2SnCSn2CSnTe4Mg2SnCSn2CSnTe4Mg2SnCSn2CSnTe4Mg2SnCSn2CSnTe4Mg2
_chemical_formula_sum              "C52 H20 N8 Sn32 Te32 Mg16"
_cell_length_a       15.461
_cell_length_b       15.916
_cell_length_c       9.48908
_cell_angle_alpha    91.9009
_cell_angle_beta     88.5841
_cell_angle_gamma    87.2251

_symmetry_space_group_name_H-M    'P1'
_space_group_IT_number       1

loop_
  _space_group_symop_operation_xyz
  'x, y, z'

loop_
  _atom_site_type_symbol
  _atom_site_label
  _atom_site_symmetry_multiplicity
  _atom_site_fract_x
  _atom_site_fract_y
  _atom_site_fract_z
  _atom_site_occupancy
  C   C1        1.0  0.27164  0.47932  0.03050  1.0000
  C   C2        1.0  0.72811  0.52500  0.04482  1.0000
  C   C3        1.0  0.32629  0.40799  0.05225  1.0000
  C   C4        1.0  0.67138  0.59662  0.06071  1.0000
  C   C5        1.0  0.41498  0.41806  0.07097  1.0000
  C   C6        1.0  0.58199  0.58670  0.07389  1.0000
  C   C7        1.0  0.45155  0.49731  0.06064  1.0000
  C   C8        1.0  0.54676  0.50654  0.06535  1.0000
  C   C9        1.0  0.39554  0.56699  0.03777  1.0000
  C   C10       1.0  0.60484  0.43639  0.05157  1.0000
  C   C11       1.0  0.30578  0.55893  0.02550  1.0000
  C   C12       1.0  0.69504  0.44485  0.04227  1.0000
  H   H1        1.0  0.20291  0.47094  0.01651  1.0000
  H   H2        1.0  0.79724  0.53372  0.03250  1.0000
  H   H3        1.0  0.45605  0.36256  0.09149  1.0000
  H   H4        1.0  0.53966  0.64320  0.08677  1.0000
  H   H5        1.0  0.41930  0.62966  0.02635  1.0000
  H   H6        1.0  0.58260  0.37272  0.04365  1.0000
  C   C13       1.0  0.24765  0.63295  0.00770  1.0000
  C   C14       1.0  0.75416  0.37031  0.02593  1.0000
  N   N1        1.0  0.27558  0.70756  0.99445  1.0000
  N   N2        1.0  0.72627  0.29520  0.02110  1.0000
  N   N3        1.0  0.21425  0.31182  0.00986  1.0000
  N   N4        1.0  0.78286  0.69179  0.01355  1.0000
  C   C15       1.0  0.29256  0.32344  0.04761  1.0000
  C   C16       1.0  0.70415  0.68134  0.05502  1.0000
  H   H7        1.0  0.17810  0.62120  0.00709  1.0000
  H   H8        1.0  0.82363  0.38179  0.01564  1.0000
  H   H9        1.0  0.33869  0.27124  0.07094  1.0000
  H   H10       1.0  0.65752  0.73421  0.08226  1.0000
  C   C17       1.0  0.95545  0.00110  0.99324  1.0000
  C   C18       1.0  0.04492  0.99995  0.98951  1.0000
  C   C19       1.0  0.27020  0.47697  0.51476  1.0000
  C   C20       1.0  0.72817  0.52089  0.53348  1.0000
  C   C21       1.0  0.32592  0.40544  0.52888  1.0000
  C   C22       1.0  0.67184  0.59300  0.53821  1.0000
  C   C23       1.0  0.41513  0.41509  0.54009  1.0000
  C   C24       1.0  0.58211  0.58392  0.54354  1.0000
  C   C25       1.0  0.45117  0.49470  0.53275  1.0000
  C   C26       1.0  0.54642  0.50391  0.53720  1.0000
  C   C27       1.0  0.39419  0.56456  0.51674  1.0000
  C   C28       1.0  0.60417  0.43331  0.53064  1.0000
  C   C29       1.0  0.30411  0.55656  0.50929  1.0000
  C   C30       1.0  0.69450  0.44104  0.53065  1.0000
  H   H11       1.0  0.20101  0.46877  0.50647  1.0000
  H   H12       1.0  0.79767  0.52907  0.53125  1.0000
  H   H13       1.0  0.45664  0.35884  0.55310  1.0000
  H   H14       1.0  0.54003  0.64079  0.55072  1.0000
  H   H15       1.0  0.41743  0.62758  0.50834  1.0000
  H   H16       1.0  0.58188  0.36965  0.52312  1.0000
  C   C31       1.0  0.24550  0.63077  0.49640  1.0000
  C   C32       1.0  0.75343  0.36611  0.52379  1.0000
  N   N5        1.0  0.27380  0.70506  0.48208  1.0000
  N   N6        1.0  0.72512  0.29116  0.51665  1.0000
  N   N7        1.0  0.21216  0.31021  0.49877  1.0000
  N   N8        1.0  0.78694  0.68556  0.50031  1.0000
  C   C33       1.0  0.29236  0.32094  0.52544  1.0000
  C   C34       1.0  0.70611  0.67697  0.53111  1.0000
  H   H17       1.0  0.17577  0.61952  0.49972  1.0000
  H   H18       1.0  0.82313  0.37750  0.52148  1.0000
  H   H19       1.0  0.33951  0.26815  0.54063  1.0000
  H   H20       1.0  0.65920  0.73090  0.54792  1.0000
  C   C35       1.0  0.95522  0.99758  0.49051  1.0000
  C   C36       1.0  0.04458  0.99846  0.48656  1.0000
  C  Sn1       1.0  0.88949  0.21917  0.06894  1.0000
  C   C37       1.0  0.81110  0.23261  0.00099  1.0000
  C  Sn2       1.0  0.75418  0.18574  0.93756  1.0000
  C  Sn3       1.0  0.79258  0.10315  0.94222  1.0000
  C   C38       1.0  0.88710  0.06920  0.01015  1.0000
  C  Sn4       1.0  0.92788  0.13658  0.07359  1.0000
  O  Te1       1.0  0.92906  0.28749  0.13164  1.0000
  O  Te2       1.0  0.67586  0.20074  0.87021  1.0000
  O  Te3       1.0  0.75293  0.03481  0.87944  1.0000
  O  Te4       1.0  0.00615  0.12160  0.14093  1.0000
  Mg  Mg1       1.0  0.64685  0.08720  0.80038  1.0000
  Mg  Mg2       1.0  0.03519  0.23509  0.21086  1.0000
  C  Sn5       1.0  0.11138  0.78442  0.05383  1.0000
  C   C39       1.0  0.17418  0.78988  0.98041  1.0000
  C  Sn6       1.0  0.21503  0.85570  0.91647  1.0000
  C  Sn7       1.0  0.17614  0.93831  0.92619  1.0000
  C   C40       1.0  0.09720  0.95335  0.99959  1.0000
  C  Sn8       1.0  0.07249  0.86703  0.06355  1.0000
  O  Te5       1.0  0.07170  0.71768  0.11694  1.0000
  O  Te6       1.0  0.29396  0.83908  0.84360  1.0000
  O  Te7       1.0  0.21588  0.00506  0.86299  1.0000
  O  Te8       1.0  0.99362  0.88362  0.13640  1.0000
  Mg  Mg3       1.0  0.32287  0.95082  0.77545  1.0000
  Mg  Mg4       1.0  0.96467  0.77194  0.20465  1.0000
  C  Sn9       1.0  0.09398  0.15462  0.86412  1.0000
  C   C41       1.0  0.10842  0.08271  0.94249  1.0000
  C  Sn10      1.0  0.17222  0.06590  0.06556  1.0000
  C  Sn11      1.0  0.20607  0.14314  0.11131  1.0000
  C   C42       1.0  0.19161  0.21500  0.03297  1.0000
  C  Sn12      1.0  0.12783  0.23186  0.90987  1.0000
  O  Te9       1.0  0.04619  0.14944  0.74142  1.0000
  O  Te10      1.0  0.13599  0.99315  0.14211  1.0000
  O  Te11      1.0  0.25389  0.14827  0.23411  1.0000
  O  Te12      1.0  0.11421  0.30455  0.83335  1.0000
  Mg  Mg5       1.0  0.25501  0.03204  0.30231  1.0000
  Mg  Mg6       1.0  0.04500  0.26575  0.67319  1.0000
  C  Sn13      1.0  0.90354  0.84517  0.86395  1.0000
  C   C43       1.0  0.89169  0.91812  0.94969  1.0000
  C  Sn14      1.0  0.86147  0.89617  0.07770  1.0000
  C  Sn15      1.0  0.82621  0.82025  0.12098  1.0000
  C   C44       1.0  0.83809  0.74735  0.03528  1.0000
  C  Sn16      1.0  0.86829  0.76924  0.90722  1.0000
  O  Te13      1.0  0.95017  0.84803  0.73640  1.0000
  O  Te14      1.0  0.85045  0.96991  0.16161  1.0000
  O  Te15      1.0  0.77956  0.81744  0.24864  1.0000
  O  Te16      1.0  0.87933  0.69556  0.82336  1.0000
  Mg  Mg7       1.0  0.78200  0.93424  0.32630  1.0000
  Mg  Mg8       1.0  0.94780  0.73114  0.65869  1.0000
  C  Sn17      1.0  0.89116  0.15153  0.63024  1.0000
  C   C45       1.0  0.88594  0.07957  0.54300  1.0000
  C  Sn18      1.0  0.83051  0.07977  0.42896  1.0000
  C  Sn19      1.0  0.77925  0.15345  0.40149  1.0000
  C   C46       1.0  0.78450  0.22536  0.48869  1.0000
  C  Sn20      1.0  0.83990  0.22521  0.60277  1.0000
  O  Te17      1.0  0.94702  0.14991  0.74365  1.0000
  O  Te18      1.0  0.82638  0.00706  0.34325  1.0000
  O  Te19      1.0  0.72336  0.15502  0.28798  1.0000
  O  Te20      1.0  0.84405  0.29787  0.68844  1.0000
  Mg  Mg9       1.0  0.74052  0.04035  0.20150  1.0000
  Mg  Mg10      1.0  0.92992  0.26467  0.83016  1.0000
  C  Sn21      1.0  0.17569  0.88844  0.36003  1.0000
  C   C47       1.0  0.10384  0.90868  0.44910  1.0000
  C  Sn22      1.0  0.09074  0.86433  0.57179  1.0000
  C  Sn23      1.0  0.15074  0.79841  0.60623  1.0000
  C   C48       1.0  0.22254  0.77820  0.51720  1.0000
  C  Sn24      1.0  0.23568  0.82251  0.39446  1.0000
  O  Te21      1.0  0.18749  0.93361  0.23792  1.0000
  O  Te22      1.0  0.01842  0.88570  0.65917  1.0000
  O  Te23      1.0  0.13887  0.75323  0.72845  1.0000
  O  Te24      1.0  0.30796  0.80118  0.30713  1.0000
  Mg  Mg11      1.0  0.03049  0.80583  0.81386  1.0000
  Mg  Mg12      1.0  0.29598  0.88104  0.15246  1.0000
  C  Sn25      1.0  0.07815  0.21495  0.42792  1.0000
  C   C49       1.0  0.14960  0.23473  0.50779  1.0000
  C  Sn26      1.0  0.20015  0.17109  0.56836  1.0000
  C  Sn27      1.0  0.17887  0.08589  0.54863  1.0000
  C   C50       1.0  0.10746  0.06614  0.46879  1.0000
  C  Sn28      1.0  0.05687  0.12975  0.40819  1.0000
  O  Te25      1.0  0.02853  0.27960  0.36834  1.0000
  O  Te26      1.0  0.27125  0.19242  0.64781  1.0000
  O  Te27      1.0  0.22855  0.02123  0.60830  1.0000
  O  Te28      1.0  0.98582  0.10846  0.32877  1.0000
  Mg  Mg13      1.0  0.31907  0.08198  0.70764  1.0000
  Mg  Mg14      1.0  0.93798  0.21883  0.26883  1.0000
  C  Sn29      1.0  0.78206  0.86107  0.55778  1.0000
  C   C51       1.0  0.80298  0.78532  0.48323  1.0000
  C  Sn30      1.0  0.88356  0.77203  0.41416  1.0000
  C  Sn31      1.0  0.94453  0.83575  0.41980  1.0000
  C   C52       1.0  0.92360  0.91144  0.49433  1.0000
  C  Sn32      1.0  0.84302  0.92480  0.56342  1.0000
  O  Te29      1.0  0.70112  0.87299  0.62605  1.0000
  O  Te30      1.0  0.90299  0.69579  0.34026  1.0000
  O  Te31      1.0  0.02551  0.82377  0.35144  1.0000
  O  Te32      1.0  0.82359  0.00097  0.63730  1.0000
  Mg  Mg15      1.0  0.02178  0.70928  0.26446  1.0000
  Mg  Mg16      1.0  0.70485  0.98753  0.71320  1.0000
