data_image0
_chemical_formula_structural       C24H24C6H2C24H8C16H8C24H16N2SO8B4C48O8B8O8C24H24C12H6C24H8C16H8C24H16N2SO8B4C48O8B8O8C2Sn2C2HTe2HMg
_chemical_formula_sum              "C294 H122 N4 S2 O48 B24 Sn2 Te2 Mg1"
_cell_length_a       37.6004
_cell_length_b       56.4078
_cell_length_c       7.9965
_cell_angle_alpha    93.4017
_cell_angle_beta     53.7887
_cell_angle_gamma    89.665

_symmetry_space_group_name_H-M    'P1'
_space_group_IT_number       1

loop_
  _space_group_symop_operation_xyz
  'x, y, z'

loop_
  _atom_site_type_symbol
  _atom_site_label
  _atom_site_symmetry_multiplicity
  _atom_site_fract_x
  _atom_site_fract_y
  _atom_site_fract_z
  _atom_site_occupancy
  C   C1        1.0  0.99721  0.63348  0.22440  1.0000
  C   C2        1.0  0.49759  0.13318  0.23413  1.0000
  C   C3        1.0  0.03104  0.36816  0.25590  1.0000
  C   C4        1.0  0.53020  0.86866  0.25490  1.0000
  C   C5        1.0  0.99249  0.36782  0.25993  1.0000
  C   C6        1.0  0.49151  0.86893  0.25987  1.0000
  C   C7        1.0  0.03588  0.63299  0.21937  1.0000
  C   C8        1.0  0.53646  0.13270  0.22702  1.0000
  C   C9        1.0  0.97901  0.61185  0.21637  1.0000
  C   C10       1.0  0.47897  0.11152  0.22924  1.0000
  C   C11       1.0  0.04850  0.39028  0.26160  1.0000
  C   C12       1.0  0.54836  0.89050  0.26034  1.0000
  C   C13       1.0  0.97297  0.38947  0.26070  1.0000
  C   C14       1.0  0.47251  0.89092  0.26210  1.0000
  C   C15       1.0  0.05483  0.61078  0.21510  1.0000
  C   C16       1.0  0.55536  0.11055  0.22291  1.0000
  C   C17       1.0  0.99829  0.59091  0.21205  1.0000
  C   C18       1.0  0.49820  0.09060  0.22570  1.0000
  C   C19       1.0  0.02818  0.41085  0.26488  1.0000
  C   C20       1.0  0.52845  0.91137  0.26622  1.0000
  C   C21       1.0  0.99115  0.41035  0.26384  1.0000
  C   C22       1.0  0.49122  0.91155  0.26660  1.0000
  C   C23       1.0  0.03545  0.59026  0.21228  1.0000
  C   C24       1.0  0.53577  0.09009  0.22276  1.0000
  H   H1        1.0  0.08354  0.60977  0.21590  1.0000
  H   H2        1.0  0.58411  0.10948  0.22326  1.0000
  H   H3        1.0  0.94460  0.39004  0.25731  1.0000
  H   H4        1.0  0.44416  0.89179  0.25855  1.0000
  H   H5        1.0  0.07707  0.39116  0.26342  1.0000
  H   H6        1.0  0.57732  0.89107  0.25908  1.0000
  H   H7        1.0  0.95025  0.61141  0.21609  1.0000
  H   H8        1.0  0.45006  0.11113  0.23000  1.0000
  H   H9        1.0  0.11059  0.63880  0.20291  1.0000
  H   H10       1.0  0.61118  0.13798  0.20807  1.0000
  H   H11       1.0  0.91774  0.36152  0.27989  1.0000
  H   H12       1.0  0.41607  0.86347  0.28271  1.0000
  H   H13       1.0  0.10699  0.36218  0.22914  1.0000
  H   H14       1.0  0.60556  0.86157  0.23295  1.0000
  H   H15       1.0  0.92151  0.63996  0.25140  1.0000
  H   H16       1.0  0.42135  0.13995  0.26582  1.0000
  H   H17       1.0  0.03732  0.71633  0.25903  1.0000
  H   H18       1.0  0.53925  0.21592  0.26272  1.0000
  H   H19       1.0  0.99010  0.28469  0.24530  1.0000
  H   H20       1.0  0.48925  0.78585  0.22488  1.0000
  H   H21       1.0  0.04044  0.28498  0.24398  1.0000
  H   H22       1.0  0.53675  0.78542  0.24398  1.0000
  H   H23       1.0  0.98862  0.71660  0.24471  1.0000
  H   H24       1.0  0.48975  0.21637  0.25352  1.0000
  C   C25       1.0  0.00929  0.47474  0.24315  1.0000
  C   C26       1.0  0.01311  0.52620  0.21645  1.0000
  C   C27       1.0  0.97703  0.48799  0.24122  1.0000
  C   C28       1.0  0.04395  0.51259  0.21807  1.0000
  C   C29       1.0  0.97898  0.51358  0.22739  1.0000
  C   C30       1.0  0.04224  0.48765  0.22980  1.0000
  H   H25       1.0  0.07014  0.52157  0.21256  1.0000
  H   H26       1.0  0.06733  0.47816  0.23126  1.0000
  C   C31       1.0  0.34491  0.78272  0.24054  1.0000
  C   C32       1.0  0.84647  0.28042  0.25118  1.0000
  C   C33       1.0  0.68361  0.21815  0.25165  1.0000
  C   C34       1.0  0.18263  0.71934  0.24189  1.0000
  C   C35       1.0  0.34473  0.22065  0.26989  1.0000
  C   C36       1.0  0.84358  0.71997  0.25685  1.0000
  C   C37       1.0  0.68201  0.78037  0.22618  1.0000
  C   C38       1.0  0.18542  0.28210  0.22927  1.0000
  C   C39       1.0  0.34649  0.75777  0.22983  1.0000
  C   C40       1.0  0.84689  0.25553  0.24769  1.0000
  C   C41       1.0  0.68374  0.24307  0.25250  1.0000
  C   C42       1.0  0.18175  0.74432  0.24923  1.0000
  C   C43       1.0  0.34771  0.24503  0.24006  1.0000
  C   C44       1.0  0.84679  0.74413  0.21990  1.0000
  C   C45       1.0  0.67843  0.75617  0.26440  1.0000
  C   C46       1.0  0.18274  0.25765  0.25776  1.0000
  C   C47       1.0  0.27875  0.78283  0.24920  1.0000
  C   C48       1.0  0.78168  0.28090  0.24891  1.0000
  C   C49       1.0  0.74853  0.21766  0.25375  1.0000
  C   C50       1.0  0.24852  0.71923  0.23699  1.0000
  C   C51       1.0  0.27768  0.22041  0.28572  1.0000
  C   C52       1.0  0.77527  0.71934  0.28320  1.0000
  C   C53       1.0  0.75055  0.78069  0.19795  1.0000
  C   C54       1.0  0.25234  0.28247  0.21527  1.0000
  H   H27       1.0  0.37267  0.74823  0.22279  1.0000
  H   H28       1.0  0.87194  0.24591  0.24876  1.0000
  H   H29       1.0  0.65912  0.25271  0.24838  1.0000
  H   H30       1.0  0.15641  0.75392  0.25020  1.0000
  H   H31       1.0  0.37488  0.25442  0.22216  1.0000
  H   H32       1.0  0.87452  0.75358  0.19515  1.0000
  H   H33       1.0  0.65074  0.74676  0.28826  1.0000
  H   H34       1.0  0.15612  0.24809  0.27180  1.0000
  C   C55       1.0  0.31102  0.79498  0.24996  1.0000
  C   C56       1.0  0.81389  0.29284  0.25141  1.0000
  C   C57       1.0  0.71594  0.20575  0.25338  1.0000
  C   C58       1.0  0.21605  0.70712  0.23669  1.0000
  C   C59       1.0  0.30967  0.20863  0.29258  1.0000
  C   C60       1.0  0.80790  0.70779  0.28699  1.0000
  C   C61       1.0  0.71816  0.79232  0.19294  1.0000
  C   C62       1.0  0.22041  0.29420  0.20755  1.0000
  C   C63       1.0  0.31454  0.74478  0.23125  1.0000
  C   C64       1.0  0.81490  0.24274  0.24782  1.0000
  C   C65       1.0  0.71573  0.25580  0.25221  1.0000
  C   C66       1.0  0.21342  0.75723  0.25028  1.0000
  C   C67       1.0  0.31661  0.25761  0.23129  1.0000
  C   C68       1.0  0.81544  0.75636  0.21112  1.0000
  C   C69       1.0  0.71000  0.74379  0.27134  1.0000
  C   C70       1.0  0.21383  0.24517  0.26730  1.0000
  H   H35       1.0  0.30998  0.81433  0.25633  1.0000
  H   H36       1.0  0.81388  0.31216  0.25214  1.0000
  H   H37       1.0  0.71571  0.18645  0.25459  1.0000
  H   H38       1.0  0.21686  0.68779  0.23264  1.0000
  H   H39       1.0  0.30731  0.18970  0.31519  1.0000
  H   H40       1.0  0.80546  0.68896  0.31351  1.0000
  H   H41       1.0  0.72122  0.81101  0.16206  1.0000
  H   H42       1.0  0.22275  0.31314  0.18524  1.0000
  C   C71       1.0  0.28009  0.75736  0.24189  1.0000
  C   C72       1.0  0.78169  0.25548  0.24975  1.0000
  C   C73       1.0  0.74870  0.24305  0.25234  1.0000
  C   C74       1.0  0.24735  0.74467  0.24397  1.0000
  C   C75       1.0  0.28102  0.24528  0.25470  1.0000
  C   C76       1.0  0.77894  0.74398  0.24459  1.0000
  C   C77       1.0  0.74644  0.75614  0.23905  1.0000
  C   C78       1.0  0.24904  0.25762  0.24667  1.0000
  C   C79       1.0  0.28328  0.70710  0.22775  1.0000
  C   C80       1.0  0.78201  0.20536  0.25329  1.0000
  C   C81       1.0  0.74855  0.29319  0.24645  1.0000
  C   C82       1.0  0.24441  0.79495  0.25511  1.0000
  C   C83       1.0  0.28848  0.29438  0.19147  1.0000
  C   C84       1.0  0.78796  0.79251  0.16098  1.0000
  C   C85       1.0  0.73850  0.70736  0.31406  1.0000
  C   C86       1.0  0.24201  0.20840  0.30617  1.0000
  C   C87       1.0  0.21324  0.78269  0.25471  1.0000
  C   C88       1.0  0.71690  0.28118  0.24817  1.0000
  C   C89       1.0  0.81403  0.21734  0.24921  1.0000
  C   C90       1.0  0.31504  0.71931  0.22411  1.0000
  C   C91       1.0  0.21174  0.22019  0.29483  1.0000
  C   C92       1.0  0.70744  0.71903  0.30747  1.0000
  C   C93       1.0  0.81900  0.78089  0.16791  1.0000
  C   C94       1.0  0.31919  0.28250  0.19950  1.0000
  H   H43       1.0  0.28385  0.68777  0.22426  1.0000
  H   H44       1.0  0.78111  0.18612  0.25829  1.0000
  H   H45       1.0  0.74951  0.31242  0.24123  1.0000
  H   H46       1.0  0.24406  0.81427  0.25783  1.0000
  H   H47       1.0  0.29086  0.31327  0.16734  1.0000
  H   H48       1.0  0.79096  0.81111  0.12752  1.0000
  H   H49       1.0  0.73597  0.68861  0.34264  1.0000
  H   H50       1.0  0.23999  0.18948  0.32839  1.0000
  H   H51       1.0  0.18787  0.79203  0.25448  1.0000
  H   H52       1.0  0.69230  0.29062  0.24285  1.0000
  H   H53       1.0  0.83907  0.20780  0.25069  1.0000
  H   H54       1.0  0.34110  0.70990  0.21851  1.0000
  H   H55       1.0  0.18510  0.21086  0.30727  1.0000
  H   H56       1.0  0.67984  0.70971  0.32957  1.0000
  H   H57       1.0  0.84720  0.79002  0.14079  1.0000
  H   H58       1.0  0.34636  0.29175  0.18245  1.0000
  N   N1        1.0  0.94235  0.47890  0.25353  1.0000
  N   N2        1.0  0.94561  0.52333  0.22970  1.0000
  S   S1        1.0  0.91580  0.50144  0.24802  1.0000
  O   O1        1.0  0.98553  0.56810  0.20857  1.0000
  O   O2        1.0  0.48528  0.06765  0.22647  1.0000
  O   O3        1.0  0.03933  0.43434  0.26468  1.0000
  O   O4        1.0  0.54066  0.93455  0.26651  1.0000
  O   O5        1.0  0.97823  0.43316  0.26024  1.0000
  O   O6        1.0  0.47912  0.93475  0.26511  1.0000
  O   O7        1.0  0.04680  0.56669  0.21125  1.0000
  O   O8        1.0  0.54748  0.06670  0.22238  1.0000
  B   B1        1.0  0.01512  0.55339  0.21112  1.0000
  B   B2        1.0  0.51577  0.05311  0.22606  1.0000
  B   B3        1.0  0.00832  0.44769  0.25847  1.0000
  B   B4        1.0  0.51029  0.94874  0.26224  1.0000
  C   C95       1.0  0.97611  0.65599  0.23872  1.0000
  C   C96       1.0  0.99490  0.67782  0.24096  1.0000
  C   C97       1.0  0.93686  0.65616  0.25101  1.0000
  C   C98       1.0  0.91863  0.67763  0.25780  1.0000
  C   C99       1.0  0.93788  0.69903  0.25166  1.0000
  C   C100      1.0  0.97504  0.69965  0.24659  1.0000
  C   C101      1.0  0.47671  0.15575  0.24826  1.0000
  C   C102      1.0  0.49579  0.17754  0.24933  1.0000
  C   C103      1.0  0.43722  0.15606  0.26266  1.0000
  C   C104      1.0  0.41899  0.17760  0.27072  1.0000
  C   C105      1.0  0.43839  0.19894  0.26501  1.0000
  C   C106      1.0  0.47587  0.19945  0.25709  1.0000
  C   C107      1.0  0.05231  0.34579  0.24507  1.0000
  C   C108      1.0  0.03362  0.32372  0.24631  1.0000
  C   C109      1.0  0.09171  0.34583  0.23168  1.0000
  C   C110      1.0  0.11036  0.32450  0.22555  1.0000
  C   C111      1.0  0.09132  0.30293  0.23349  1.0000
  C   C112      1.0  0.05394  0.30203  0.24038  1.0000
  C   C113      1.0  0.55081  0.84603  0.24433  1.0000
  C   C114      1.0  0.53166  0.82426  0.24330  1.0000
  C   C115      1.0  0.58995  0.84545  0.23325  1.0000
  C   C116      1.0  0.60795  0.82381  0.22565  1.0000
  C   C117      1.0  0.58835  0.80252  0.23162  1.0000
  C   C118      1.0  0.55099  0.80226  0.23850  1.0000
  C   C119      1.0  0.97320  0.34537  0.26287  1.0000
  C   C120      1.0  0.99361  0.32353  0.25595  1.0000
  C   C121      1.0  0.93412  0.34527  0.27369  1.0000
  C   C122      1.0  0.91748  0.32375  0.27150  1.0000
  C   C123      1.0  0.93808  0.30231  0.25933  1.0000
  C   C124      1.0  0.97521  0.30168  0.25442  1.0000
  C   C125      1.0  0.47177  0.84674  0.26069  1.0000
  C   C126      1.0  0.49213  0.82464  0.24937  1.0000
  C   C127      1.0  0.43261  0.84705  0.27208  1.0000
  C   C128      1.0  0.41607  0.82573  0.26432  1.0000
  C   C129      1.0  0.43694  0.80410  0.24594  1.0000
  C   C130      1.0  0.47408  0.80302  0.24043  1.0000
  C   C131      1.0  0.05509  0.65533  0.22191  1.0000
  C   C132      1.0  0.03456  0.67749  0.23442  1.0000
  C   C133      1.0  0.09405  0.65520  0.21253  1.0000
  C   C134      1.0  0.11062  0.67655  0.21965  1.0000
  C   C135      1.0  0.08993  0.69826  0.23741  1.0000
  C   C136      1.0  0.05260  0.69920  0.24364  1.0000
  C   C137      1.0  0.55600  0.15493  0.22817  1.0000
  C   C138      1.0  0.53565  0.17712  0.24086  1.0000
  C   C139      1.0  0.59506  0.15453  0.21760  1.0000
  C   C140      1.0  0.61185  0.17575  0.22527  1.0000
  C   C141      1.0  0.59130  0.19754  0.24339  1.0000
  C   C142      1.0  0.55407  0.19871  0.24901  1.0000
  O   O9        1.0  0.91392  0.71770  0.25018  1.0000
  O   O10       1.0  0.41434  0.21772  0.26597  1.0000
  O   O11       1.0  0.11570  0.28453  0.23362  1.0000
  O   O12       1.0  0.61205  0.78364  0.23089  1.0000
  O   O13       1.0  0.91575  0.28346  0.24959  1.0000
  O   O14       1.0  0.41473  0.78554  0.23227  1.0000
  O   O15       1.0  0.11249  0.71674  0.24909  1.0000
  O   O16       1.0  0.61385  0.21588  0.25662  1.0000
  B   B5        1.0  0.87912  0.70688  0.25872  1.0000
  B   B6        1.0  0.37963  0.20708  0.27332  1.0000
  B   B7        1.0  0.15054  0.29537  0.22284  1.0000
  B   B8        1.0  0.64711  0.79396  0.22175  1.0000
  B   B9        1.0  0.88068  0.29415  0.25785  1.0000
  B   B10       1.0  0.37941  0.79646  0.24469  1.0000
  B   B11       1.0  0.14809  0.70583  0.23469  1.0000
  B   B12       1.0  0.64925  0.20481  0.24264  1.0000
  O   O17       1.0  0.88131  0.68216  0.26726  1.0000
  O   O18       1.0  0.38155  0.18230  0.28127  1.0000
  O   O19       1.0  0.14783  0.32018  0.21609  1.0000
  O   O20       1.0  0.64510  0.81885  0.21700  1.0000
  O   O21       1.0  0.88084  0.31908  0.27599  1.0000
  O   O22       1.0  0.37941  0.82137  0.26807  1.0000
  O   O23       1.0  0.14729  0.68089  0.21618  1.0000
  O   O24       1.0  0.64844  0.17987  0.22283  1.0000
  C   C143      1.0  0.96683  0.63351  0.74399  1.0000
  C   C144      1.0  0.46757  0.13227  0.75083  1.0000
  C   C145      1.0  0.00174  0.36754  0.77072  1.0000
  C   C146      1.0  0.50054  0.86833  0.77080  1.0000
  C   C147      1.0  0.96294  0.36729  0.77693  1.0000
  C   C148      1.0  0.46151  0.86843  0.77917  1.0000
  C   C149      1.0  0.00570  0.63256  0.73757  1.0000
  C   C150      1.0  0.50632  0.13167  0.74504  1.0000
  C   C151      1.0  0.94779  0.61202  0.73897  1.0000
  C   C152      1.0  0.44893  0.11063  0.74541  1.0000
  C   C153      1.0  0.01959  0.38960  0.77432  1.0000
  C   C154      1.0  0.51875  0.89018  0.77492  1.0000
  C   C155      1.0  0.94338  0.38902  0.77877  1.0000
  C   C156      1.0  0.44172  0.89041  0.78614  1.0000
  C   C157      1.0  0.02425  0.61023  0.73232  1.0000
  C   C158      1.0  0.52502  0.10949  0.74167  1.0000
  C   C159      1.0  0.96714  0.59083  0.73132  1.0000
  C   C160      1.0  0.46851  0.08961  0.73888  1.0000
  C   C161      1.0  0.99972  0.41018  0.77524  1.0000
  C   C162      1.0  0.49877  0.91092  0.78050  1.0000
  C   C163      1.0  0.96227  0.40981  0.77735  1.0000
  C   C164      1.0  0.46096  0.91106  0.78530  1.0000
  C   C165      1.0  0.00469  0.58994  0.72826  1.0000
  C   C166      1.0  0.50582  0.08903  0.73781  1.0000
  H   H59       1.0  0.05311  0.60885  0.73152  1.0000
  H   H60       1.0  0.55362  0.10836  0.74311  1.0000
  H   H61       1.0  0.91469  0.38970  0.77784  1.0000
  H   H62       1.0  0.41265  0.89130  0.78825  1.0000
  H   H63       1.0  0.04844  0.39045  0.77379  1.0000
  H   H64       1.0  0.54808  0.89084  0.77070  1.0000
  H   H65       1.0  0.91883  0.61194  0.73997  1.0000
  H   H66       1.0  0.42000  0.11027  0.74636  1.0000
  H   H67       1.0  0.08088  0.63699  0.72071  1.0000
  H   H68       1.0  0.58109  0.13659  0.72766  1.0000
  H   H69       1.0  0.88809  0.36099  0.79751  1.0000
  H   H70       1.0  0.38618  0.86231  0.80242  1.0000
  H   H71       1.0  0.07741  0.36154  0.74753  1.0000
  H   H72       1.0  0.57527  0.86240  0.75172  1.0000
  H   H73       1.0  0.89076  0.64190  0.77388  1.0000
  H   H74       1.0  0.39133  0.13973  0.78184  1.0000
  H   H75       1.0  0.01266  0.71546  0.75738  1.0000
  H   H76       1.0  0.51259  0.21466  0.75840  1.0000
  H   H77       1.0  0.96212  0.28397  0.74550  1.0000
  H   H78       1.0  0.46289  0.78511  0.72472  1.0000
  H   H79       1.0  0.01152  0.28441  0.75320  1.0000
  H   H80       1.0  0.51128  0.78516  0.74298  1.0000
  H   H81       1.0  0.96491  0.71672  0.74194  1.0000
  H   H82       1.0  0.46206  0.21553  0.76101  1.0000
  C   C167      1.0  0.98096  0.47429  0.75582  1.0000
  C   C168      1.0  0.48115  0.97525  0.77486  1.0000
  C   C169      1.0  0.98353  0.52586  0.72916  1.0000
  C   C170      1.0  0.48422  0.02505  0.75098  1.0000
  C   C171      1.0  0.94831  0.48729  0.75462  1.0000
  C   C172      1.0  0.44914  0.98809  0.77324  1.0000
  C   C173      1.0  0.01454  0.51255  0.73178  1.0000
  C   C174      1.0  0.51602  0.01221  0.75429  1.0000
  C   C175      1.0  0.94978  0.51287  0.74026  1.0000
  C   C176      1.0  0.45065  0.01262  0.76120  1.0000
  C   C177      1.0  0.01347  0.48761  0.74339  1.0000
  C   C178      1.0  0.51458  0.98768  0.76572  1.0000
  H   H83       1.0  0.42329  0.97857  0.77984  1.0000
  H   H84       1.0  0.04024  0.52182  0.72845  1.0000
  H   H85       1.0  0.54168  0.02169  0.74968  1.0000
  H   H86       1.0  0.42585  0.02233  0.75903  1.0000
  H   H87       1.0  0.03857  0.47848  0.74707  1.0000
  H   H88       1.0  0.53927  0.97798  0.76876  1.0000
  C   C179      1.0  0.31694  0.78148  0.74824  1.0000
  C   C180      1.0  0.81834  0.27978  0.75260  1.0000
  C   C181      1.0  0.65596  0.21668  0.75284  1.0000
  C   C182      1.0  0.15617  0.71699  0.74605  1.0000
  C   C183      1.0  0.31641  0.22060  0.77845  1.0000
  C   C184      1.0  0.81906  0.72365  0.76198  1.0000
  C   C185      1.0  0.65598  0.78274  0.73413  1.0000
  C   C186      1.0  0.15668  0.28142  0.73761  1.0000
  C   C187      1.0  0.31851  0.75649  0.73931  1.0000
  C   C188      1.0  0.81854  0.25483  0.75153  1.0000
  C   C189      1.0  0.65564  0.24156  0.75512  1.0000
  C   C190      1.0  0.15432  0.74193  0.75636  1.0000
  C   C191      1.0  0.31904  0.24502  0.74920  1.0000
  C   C192      1.0  0.82212  0.74785  0.72393  1.0000
  C   C193      1.0  0.65315  0.75861  0.77161  1.0000
  C   C194      1.0  0.15383  0.25706  0.76830  1.0000
  C   C195      1.0  0.25128  0.78110  0.75186  1.0000
  C   C196      1.0  0.75358  0.27981  0.74927  1.0000
  C   C197      1.0  0.72084  0.21642  0.75492  1.0000
  C   C198      1.0  0.22212  0.71728  0.73916  1.0000
  C   C199      1.0  0.24947  0.22003  0.79264  1.0000
  C   C200      1.0  0.75031  0.72286  0.79187  1.0000
  C   C201      1.0  0.72441  0.78385  0.70649  1.0000
  C   C202      1.0  0.22379  0.28193  0.72116  1.0000
  H   H89       1.0  0.34401  0.74708  0.73844  1.0000
  H   H90       1.0  0.84322  0.24528  0.75584  1.0000
  H   H91       1.0  0.63070  0.25114  0.75302  1.0000
  H   H92       1.0  0.12820  0.75133  0.76208  1.0000
  H   H93       1.0  0.34566  0.25463  0.73487  1.0000
  H   H94       1.0  0.84961  0.75751  0.69956  1.0000
  H   H95       1.0  0.62556  0.74899  0.79652  1.0000
  H   H96       1.0  0.12675  0.24758  0.78636  1.0000
  C   C203      1.0  0.28335  0.79347  0.75347  1.0000
  C   C204      1.0  0.78591  0.29194  0.75015  1.0000
  C   C205      1.0  0.68856  0.20437  0.75325  1.0000
  C   C206      1.0  0.19008  0.70492  0.73770  1.0000
  C   C207      1.0  0.28147  0.20841  0.80044  1.0000
  C   C208      1.0  0.78302  0.71149  0.79586  1.0000
  C   C209      1.0  0.69159  0.79513  0.70259  1.0000
  C   C210      1.0  0.19171  0.29358  0.71409  1.0000
  C   C211      1.0  0.28716  0.74333  0.73750  1.0000
  C   C212      1.0  0.78674  0.24190  0.75141  1.0000
  C   C213      1.0  0.68756  0.25445  0.75462  1.0000
  C   C214      1.0  0.18589  0.75511  0.75638  1.0000
  C   C215      1.0  0.28789  0.25741  0.73946  1.0000
  C   C216      1.0  0.79020  0.75999  0.71796  1.0000
  C   C217      1.0  0.68476  0.74662  0.78001  1.0000
  C   C218      1.0  0.18499  0.24463  0.77741  1.0000
  H   H97       1.0  0.28199  0.81281  0.75935  1.0000
  H   H98       1.0  0.78579  0.31124  0.74861  1.0000
  H   H99       1.0  0.68859  0.18506  0.75340  1.0000
  H   H100      1.0  0.19141  0.68557  0.73140  1.0000
  H   H101      1.0  0.27922  0.18950  0.82332  1.0000
  H   H102      1.0  0.78037  0.69280  0.82609  1.0000
  H   H103      1.0  0.69389  0.81388  0.67404  1.0000
  H   H104      1.0  0.19403  0.31248  0.69068  1.0000
  C   C219      1.0  0.25295  0.75566  0.74438  1.0000
  C   C220      1.0  0.75363  0.25443  0.75094  1.0000
  C   C221      1.0  0.72077  0.24184  0.75344  1.0000
  C   C222      1.0  0.22044  0.74274  0.74625  1.0000
  C   C223      1.0  0.25274  0.24485  0.76036  1.0000
  C   C224      1.0  0.75392  0.74738  0.75083  1.0000
  C   C225      1.0  0.72112  0.75924  0.74579  1.0000
  C   C226      1.0  0.22063  0.25707  0.75257  1.0000
  C   C227      1.0  0.25661  0.70541  0.73376  1.0000
  C   C228      1.0  0.75423  0.20434  0.75679  1.0000
  C   C229      1.0  0.72016  0.29195  0.74837  1.0000
  C   C230      1.0  0.21630  0.79302  0.76161  1.0000
  C   C231      1.0  0.25939  0.29405  0.70044  1.0000
  C   C232      1.0  0.76106  0.79609  0.67454  1.0000
  C   C233      1.0  0.71302  0.71077  0.82996  1.0000
  C   C234      1.0  0.21316  0.20804  0.81900  1.0000
  C   C235      1.0  0.18480  0.78059  0.76491  1.0000
  C   C236      1.0  0.68837  0.27983  0.75180  1.0000
  C   C237      1.0  0.78574  0.21650  0.75512  1.0000
  C   C238      1.0  0.28775  0.71787  0.73289  1.0000
  C   C239      1.0  0.18225  0.21982  0.81182  1.0000
  C   C240      1.0  0.68166  0.72212  0.82376  1.0000
  C   C241      1.0  0.79232  0.78473  0.68149  1.0000
  C   C242      1.0  0.28981  0.28237  0.71160  1.0000
  H   H105      1.0  0.25719  0.68609  0.73193  1.0000
  H   H106      1.0  0.75354  0.18509  0.76163  1.0000
  H   H107      1.0  0.72094  0.31118  0.74257  1.0000
  H   H108      1.0  0.21546  0.81234  0.76534  1.0000
  H   H109      1.0  0.26129  0.31297  0.67847  1.0000
  H   H110      1.0  0.76318  0.81483  0.64548  1.0000
  H   H111      1.0  0.71027  0.69220  0.86455  1.0000
  H   H112      1.0  0.21078  0.18921  0.84505  1.0000
  H   H113      1.0  0.15846  0.78981  0.77150  1.0000
  H   H114      1.0  0.66350  0.28919  0.74808  1.0000
  H   H115      1.0  0.81036  0.20712  0.76065  1.0000
  H   H116      1.0  0.31344  0.70871  0.73188  1.0000
  H   H117      1.0  0.15471  0.21059  0.83262  1.0000
  H   H118      1.0  0.65349  0.71279  0.85232  1.0000
  H   H119      1.0  0.81971  0.79431  0.65945  1.0000
  H   H120      1.0  0.31637  0.29179  0.69906  1.0000
  N   N3        1.0  0.91378  0.47792  0.76696  1.0000
  N   N4        1.0  0.91624  0.52232  0.74235  1.0000
  S   S2        1.0  0.88676  0.50017  0.76188  1.0000
  O   O25       1.0  0.95440  0.56793  0.72767  1.0000
  O   O26       1.0  0.45583  0.06659  0.73756  1.0000
  O   O27       1.0  0.01181  0.43346  0.76981  1.0000
  O   O28       1.0  0.51133  0.93398  0.77840  1.0000
  O   O29       1.0  0.94980  0.43273  0.77323  1.0000
  O   O30       1.0  0.44874  0.93432  0.78511  1.0000
  O   O31       1.0  0.01646  0.56646  0.72369  1.0000
  O   O32       1.0  0.51760  0.06567  0.73698  1.0000
  B   B13       1.0  0.98471  0.55313  0.72596  1.0000
  B   B14       1.0  0.48605  0.05210  0.74012  1.0000
  B   B15       1.0  0.98060  0.44713  0.76824  1.0000
  B   B16       1.0  0.48031  0.94817  0.78044  1.0000
  C   C243      1.0  0.94721  0.65644  0.75329  1.0000
  C   C244      1.0  0.96777  0.67785  0.74901  1.0000
  C   C245      1.0  0.90779  0.65767  0.76703  1.0000
  C   C246      1.0  0.89128  0.67953  0.76876  1.0000
  C   C247      1.0  0.91240  0.70044  0.75637  1.0000
  C   C248      1.0  0.94978  0.70013  0.74949  1.0000
  C   C249      1.0  0.44719  0.15501  0.76258  1.0000
  C   C250      1.0  0.46701  0.17667  0.76007  1.0000
  C   C251      1.0  0.40761  0.15572  0.77777  1.0000
  C   C252      1.0  0.38996  0.17740  0.78402  1.0000
  C   C253      1.0  0.40997  0.19864  0.77517  1.0000
  C   C254      1.0  0.44766  0.19876  0.76605  1.0000
  C   C255      1.0  0.02317  0.34519  0.75842  1.0000
  C   C256      1.0  0.00475  0.32311  0.75688  1.0000
  C   C257      1.0  0.06239  0.34523  0.74675  1.0000
  C   C258      1.0  0.08121  0.32382  0.73843  1.0000
  C   C259      1.0  0.06257  0.30226  0.74216  1.0000
  C   C260      1.0  0.02515  0.30142  0.74964  1.0000
  C   C261      1.0  0.52196  0.84593  0.75646  1.0000
  C   C262      1.0  0.50398  0.82392  0.75065  1.0000
  C   C263      1.0  0.56084  0.84604  0.74721  1.0000
  C   C264      1.0  0.57986  0.82468  0.73687  1.0000
  C   C265      1.0  0.56152  0.80309  0.73835  1.0000
  C   C266      1.0  0.52452  0.80221  0.74222  1.0000
  C   C267      1.0  0.94388  0.34479  0.77766  1.0000
  C   C268      1.0  0.96481  0.32288  0.76573  1.0000
  C   C269      1.0  0.90479  0.34469  0.78827  1.0000
  C   C270      1.0  0.88859  0.32323  0.78097  1.0000
  C   C271      1.0  0.90966  0.30171  0.76405  1.0000
  C   C272      1.0  0.94688  0.30102  0.75874  1.0000
  C   C273      1.0  0.44282  0.84599  0.77525  1.0000
  C   C274      1.0  0.46425  0.82395  0.75769  1.0000
  C   C275      1.0  0.40351  0.84599  0.78767  1.0000
  C   C276      1.0  0.38758  0.82458  0.77717  1.0000
  C   C277      1.0  0.40926  0.80297  0.75320  1.0000
  C   C278      1.0  0.44685  0.80217  0.74495  1.0000
  C   C279      1.0  0.02646  0.65441  0.73501  1.0000
  C   C280      1.0  0.00741  0.67679  0.74184  1.0000
  C   C281      1.0  0.06541  0.65356  0.72561  1.0000
  C   C282      1.0  0.08316  0.67464  0.72872  1.0000
  C   C283      1.0  0.06374  0.69653  0.74106  1.0000
  C   C284      1.0  0.02672  0.69810  0.74615  1.0000
  C   C285      1.0  0.52660  0.15373  0.74263  1.0000
  C   C286      1.0  0.50711  0.17597  0.74966  1.0000
  C   C287      1.0  0.56555  0.15314  0.73297  1.0000
  C   C288      1.0  0.58306  0.17431  0.73590  1.0000
  C   C289      1.0  0.56354  0.19607  0.74622  1.0000
  C   C290      1.0  0.52650  0.19741  0.75091  1.0000
  O   O33       1.0  0.88980  0.71961  0.75313  1.0000
  O   O34       1.0  0.38628  0.21749  0.77500  1.0000
  O   O35       1.0  0.08703  0.28369  0.74112  1.0000
  O   O36       1.0  0.58590  0.78459  0.73880  1.0000
  O   O37       1.0  0.88774  0.28303  0.75028  1.0000
  O   O38       1.0  0.38728  0.78443  0.73804  1.0000
  O   O39       1.0  0.08691  0.71477  0.75115  1.0000
  O   O40       1.0  0.58682  0.21444  0.75418  1.0000
  B   B17       1.0  0.85384  0.70992  0.76673  1.0000
  B   B18       1.0  0.35097  0.20716  0.78629  1.0000
  B   B19       1.0  0.12138  0.29465  0.73497  1.0000
  B   B20       1.0  0.62012  0.79565  0.73353  1.0000
  B   B21       1.0  0.85224  0.29360  0.76246  1.0000
  B   B22       1.0  0.35103  0.79520  0.75719  1.0000
  B   B23       1.0  0.12149  0.70338  0.74230  1.0000
  B   B24       1.0  0.62126  0.20324  0.74772  1.0000
  O   O41       1.0  0.85430  0.68508  0.77772  1.0000
  O   O42       1.0  0.35268  0.18232  0.79387  1.0000
  O   O43       1.0  0.11860  0.31940  0.72936  1.0000
  O   O44       1.0  0.61711  0.82037  0.72864  1.0000
  O   O45       1.0  0.85228  0.31861  0.78210  1.0000
  O   O46       1.0  0.35081  0.82015  0.78171  1.0000
  O   O47       1.0  0.12000  0.67852  0.72465  1.0000
  O   O48       1.0  0.61981  0.17838  0.73212  1.0000
  C   C291      1.0  0.47405  0.99467  0.25720  1.0000
  C   C292      1.0  0.50451  0.97862  0.24155  1.0000
  C  Sn1       1.0  0.54079  0.98688  0.23015  1.0000
  C  Sn2       1.0  0.55536  0.01168  0.23459  1.0000
  C   C293      1.0  0.52468  0.02760  0.25043  1.0000
  C   C294      1.0  0.48850  0.01914  0.26167  1.0000
  H   H121      1.0  0.44604  0.98813  0.26602  1.0000
  O  Te1       1.0  0.57093  0.97059  0.21448  1.0000
  O  Te2       1.0  0.59132  0.02042  0.22351  1.0000
  H   H122      1.0  0.46490  0.03157  0.27393  1.0000
  Mg  Mg1       1.0  0.61464  0.99118  0.20361  1.0000
