data_image0
_chemical_formula_structural       C22H4C14H8NiO4H4C16O4H4N4B2N2B2N4C30H8NiO4H4C16O4H4N4B2N2B2N4C2Sn2C2HTe2HMg
_chemical_formula_sum              "C102 H38 Ni2 O16 N20 B8 Sn2 Te2 Mg1"
_cell_length_a       27.0179
_cell_length_b       23.0413
_cell_length_c       7.8051
_cell_angle_alpha    115.208
_cell_angle_beta     107.22
_cell_angle_gamma    89.76

_symmetry_space_group_name_H-M    'P1'
_space_group_IT_number       1

loop_
  _space_group_symop_operation_xyz
  'x, y, z'

loop_
  _atom_site_type_symbol
  _atom_site_label
  _atom_site_symmetry_multiplicity
  _atom_site_fract_x
  _atom_site_fract_y
  _atom_site_fract_z
  _atom_site_occupancy
  C   C1        1.0  0.73895  0.97022  0.24796  1.0000
  C   C2        1.0  0.26032  0.03219  0.25129  1.0000
  C   C3        1.0  0.26053  0.97076  0.25043  1.0000
  C   C4        1.0  0.73903  0.03188  0.25061  1.0000
  C   C5        1.0  0.69605  0.06474  0.25071  1.0000
  C   C6        1.0  0.30352  0.93804  0.25064  1.0000
  C   C7        1.0  0.30323  0.06579  0.25512  1.0000
  C   C8        1.0  0.69593  0.93698  0.24478  1.0000
  C   C9        1.0  0.65221  0.03158  0.24862  1.0000
  C   C10       1.0  0.34712  0.97138  0.25217  1.0000
  C   C11       1.0  0.34713  0.03299  0.25527  1.0000
  C   C12       1.0  0.65214  0.97003  0.24596  1.0000
  C   C13       1.0  0.60090  0.04985  0.25129  1.0000
  C   C14       1.0  0.39822  0.95305  0.24808  1.0000
  C   C15       1.0  0.39844  0.05074  0.25490  1.0000
  C   C16       1.0  0.60079  0.95241  0.24668  1.0000
  C   C17       1.0  0.49934  0.56291  0.25004  1.0000
  C   C18       1.0  0.49843  0.44023  0.25057  1.0000
  C   C19       1.0  0.45378  0.53160  0.24408  1.0000
  C   C20       1.0  0.54394  0.47151  0.25626  1.0000
  C   C21       1.0  0.54445  0.53189  0.25630  1.0000
  C   C22       1.0  0.45333  0.47124  0.24427  1.0000
  H   H1        1.0  0.41874  0.55523  0.24011  1.0000
  H   H2        1.0  0.57893  0.44782  0.26028  1.0000
  H   H3        1.0  0.57972  0.55541  0.25905  1.0000
  H   H4        1.0  0.41816  0.44771  0.24205  1.0000
  C   C23       1.0  0.02516  0.00077  0.24717  1.0000
  C   C24       1.0  0.97364  0.00009  0.24212  1.0000
  C   C25       1.0  0.02821  0.89928  0.28297  1.0000
  C   C26       1.0  0.97084  0.10209  0.20870  1.0000
  C   C27       1.0  0.97713  0.89832  0.27638  1.0000
  C   C28       1.0  0.02192  0.10292  0.21489  1.0000
  C   C29       1.0  0.05461  0.95024  0.26815  1.0000
  C   C30       1.0  0.94431  0.05083  0.22245  1.0000
  C   C31       1.0  0.94738  0.94853  0.25602  1.0000
  C   C32       1.0  0.05140  0.05239  0.23379  1.0000
  C   C33       1.0  0.10550  0.95157  0.26862  1.0000
  C   C34       1.0  0.89349  0.04953  0.22324  1.0000
  C   C35       1.0  0.89608  0.94884  0.24965  1.0000
  C   C36       1.0  0.10272  0.05196  0.24065  1.0000
  H   H5        1.0  0.12916  0.91441  0.28074  1.0000
  H   H6        1.0  0.87012  0.08710  0.21311  1.0000
  H   H7        1.0  0.87452  0.91155  0.26042  1.0000
  H   H8        1.0  0.12407  0.08910  0.22886  1.0000
  H   H9        1.0  0.05004  0.86132  0.30094  1.0000
  H   H10       1.0  0.94945  0.14072  0.19377  1.0000
  H   H11       1.0  0.95829  0.85976  0.29081  1.0000
  H   H12       1.0  0.04130  0.14168  0.20281  1.0000
  Ni  Ni1       1.0  0.49940  0.00145  0.24943  1.0000
  O   O1        1.0  0.78746  0.05152  0.24964  1.0000
  O   O2        1.0  0.21218  0.95078  0.25084  1.0000
  O   O3        1.0  0.21171  0.05203  0.25141  1.0000
  O   O4        1.0  0.78727  0.94964  0.24457  1.0000
  H   H13       1.0  0.69563  0.11174  0.24972  1.0000
  H   H14       1.0  0.30393  0.89108  0.25190  1.0000
  H   H15       1.0  0.30310  0.11314  0.25660  1.0000
  H   H16       1.0  0.69592  0.88950  0.24238  1.0000
  C   C37       1.0  0.47273  0.71934  0.23917  1.0000
  C   C38       1.0  0.55388  0.77080  0.24947  1.0000
  C   C39       1.0  0.52558  0.82167  0.24625  1.0000
  C   C40       1.0  0.54075  0.88202  0.24656  1.0000
  C   C41       1.0  0.52561  0.28376  0.26084  1.0000
  C   C42       1.0  0.44538  0.23314  0.25901  1.0000
  C   C43       1.0  0.47365  0.18196  0.25883  1.0000
  C   C44       1.0  0.45855  0.12144  0.25728  1.0000
  C   C45       1.0  0.52559  0.72014  0.24613  1.0000
  C   C46       1.0  0.44463  0.76954  0.23762  1.0000
  C   C47       1.0  0.47307  0.82125  0.24232  1.0000
  C   C48       1.0  0.45791  0.88168  0.24253  1.0000
  C   C49       1.0  0.47318  0.28353  0.25924  1.0000
  C   C50       1.0  0.55369  0.23327  0.25951  1.0000
  C   C51       1.0  0.52576  0.18183  0.25803  1.0000
  C   C52       1.0  0.54102  0.12122  0.25655  1.0000
  O   O5        1.0  0.54265  0.66405  0.25115  1.0000
  O   O6        1.0  0.45574  0.33947  0.25402  1.0000
  O   O7        1.0  0.45580  0.66235  0.23668  1.0000
  O   O8        1.0  0.54204  0.34044  0.26033  1.0000
  H   H17       1.0  0.59450  0.77159  0.25469  1.0000
  H   H18       1.0  0.40511  0.23268  0.25796  1.0000
  H   H19       1.0  0.40426  0.76945  0.23545  1.0000
  H   H20       1.0  0.59366  0.23287  0.25686  1.0000
  N   N1        1.0  0.58814  0.10581  0.25556  1.0000
  N   N2        1.0  0.41077  0.89694  0.24274  1.0000
  N   N3        1.0  0.41147  0.10625  0.25694  1.0000
  N   N4        1.0  0.58785  0.89720  0.24682  1.0000
  B   B1        1.0  0.81616  0.00030  0.24514  1.0000
  B   B2        1.0  0.18305  0.00135  0.25123  1.0000
  N   N5        1.0  0.57015  0.00123  0.24886  1.0000
  N   N6        1.0  0.42894  0.00170  0.25067  1.0000
  B   B3        1.0  0.49939  0.62888  0.24576  1.0000
  B   B4        1.0  0.49857  0.37422  0.25503  1.0000
  N   N7        1.0  0.49928  0.91795  0.24527  1.0000
  N   N8        1.0  0.49980  0.08517  0.25558  1.0000
  N   N9        1.0  0.13051  0.00172  0.25501  1.0000
  N   N10       1.0  0.86844  0.99943  0.23735  1.0000
  C   C53       1.0  0.74063  0.97003  0.74952  1.0000
  C   C54       1.0  0.26145  0.02755  0.75037  1.0000
  C   C55       1.0  0.26148  0.96595  0.74851  1.0000
  C   C56       1.0  0.73979  0.03117  0.74822  1.0000
  C   C57       1.0  0.69660  0.06356  0.74917  1.0000
  C   C58       1.0  0.30455  0.93319  0.74867  1.0000
  C   C59       1.0  0.30456  0.06116  0.75557  1.0000
  C   C60       1.0  0.69810  0.93626  0.74764  1.0000
  C   C61       1.0  0.65340  0.02995  0.74930  1.0000
  C   C62       1.0  0.34842  0.96656  0.75135  1.0000
  C   C63       1.0  0.34839  0.02832  0.75556  1.0000
  C   C64       1.0  0.65394  0.96856  0.74764  1.0000
  C   C65       1.0  0.60211  0.04768  0.75309  1.0000
  C   C66       1.0  0.39988  0.94874  0.74879  1.0000
  C   C67       1.0  0.39971  0.04659  0.75632  1.0000
  C   C68       1.0  0.60279  0.95035  0.74861  1.0000
  C   C69       1.0  0.02606  0.99889  0.74764  1.0000
  C   C70       1.0  0.97459  0.99905  0.74327  1.0000
  C   C71       1.0  0.02804  0.89741  0.78362  1.0000
  C   C72       1.0  0.97258  0.10035  0.70651  1.0000
  C   C73       1.0  0.97703  0.89727  0.77795  1.0000
  C   C74       1.0  0.02357  0.10028  0.71144  1.0000
  C   C75       1.0  0.05494  0.94798  0.76842  1.0000
  C   C76       1.0  0.94569  0.04998  0.72230  1.0000
  C   C77       1.0  0.94796  0.94801  0.75816  1.0000
  C   C78       1.0  0.05272  0.04973  0.73209  1.0000
  C   C79       1.0  0.10574  0.94853  0.76759  1.0000
  C   C80       1.0  0.89489  0.04956  0.72346  1.0000
  C   C81       1.0  0.89678  0.94929  0.75255  1.0000
  C   C82       1.0  0.10395  0.04854  0.73760  1.0000
  H   H21       1.0  0.12887  0.91095  0.77929  1.0000
  H   H22       1.0  0.87163  0.08717  0.71266  1.0000
  H   H23       1.0  0.87508  0.91259  0.76514  1.0000
  H   H24       1.0  0.12561  0.08503  0.72389  1.0000
  H   H25       1.0  0.04926  0.85886  0.80010  1.0000
  H   H26       1.0  0.95136  0.13882  0.68947  1.0000
  H   H27       1.0  0.95768  0.85897  0.79213  1.0000
  H   H28       1.0  0.04286  0.13830  0.69612  1.0000
  Ni  Ni2       1.0  0.50121  0.99845  0.75282  1.0000
  O   O9        1.0  0.78773  0.05118  0.74433  1.0000
  O   O10       1.0  0.21285  0.94611  0.74821  1.0000
  O   O11       1.0  0.21285  0.04760  0.74990  1.0000
  O   O12       1.0  0.78937  0.95067  0.74924  1.0000
  H   H29       1.0  0.69545  0.11028  0.74624  1.0000
  H   H30       1.0  0.30493  0.88603  0.74866  1.0000
  H   H31       1.0  0.30495  0.10864  0.75790  1.0000
  H   H32       1.0  0.69854  0.88905  0.74710  1.0000
  C   C83       1.0  0.47670  0.71626  0.74271  1.0000
  C   C84       1.0  0.55720  0.76786  0.74928  1.0000
  C   C85       1.0  0.52865  0.81873  0.74772  1.0000
  C   C86       1.0  0.54326  0.87923  0.74775  1.0000
  C   C87       1.0  0.52638  0.28029  0.76126  1.0000
  C   C88       1.0  0.44601  0.23002  0.76013  1.0000
  C   C89       1.0  0.47415  0.17866  0.75988  1.0000
  C   C90       1.0  0.45932  0.11802  0.75886  1.0000
  C   C91       1.0  0.52943  0.71715  0.74789  1.0000
  C   C92       1.0  0.44833  0.76639  0.74245  1.0000
  C   C93       1.0  0.47631  0.81817  0.74605  1.0000
  C   C94       1.0  0.46055  0.87839  0.74588  1.0000
  C   C95       1.0  0.47399  0.28030  0.76011  1.0000
  C   C96       1.0  0.55442  0.22991  0.76102  1.0000
  C   C97       1.0  0.52631  0.17870  0.75964  1.0000
  C   C98       1.0  0.54180  0.11834  0.75873  1.0000
  O   O13       1.0  0.54688  0.66114  0.75308  1.0000
  O   O14       1.0  0.45701  0.33655  0.75574  1.0000
  O   O15       1.0  0.46015  0.65926  0.74076  1.0000
  O   O16       1.0  0.54291  0.33668  0.75988  1.0000
  H   H33       1.0  0.59759  0.76862  0.75165  1.0000
  H   H34       1.0  0.40571  0.22971  0.75894  1.0000
  H   H35       1.0  0.40815  0.76652  0.74266  1.0000
  H   H36       1.0  0.59443  0.22930  0.75889  1.0000
  N   N11       1.0  0.58899  0.10348  0.75757  1.0000
  N   N12       1.0  0.41316  0.89303  0.74501  1.0000
  N   N13       1.0  0.41238  0.10230  0.75863  1.0000
  N   N14       1.0  0.59023  0.89493  0.74817  1.0000
  B   B5        1.0  0.81729  0.00102  0.74524  1.0000
  B   B6        1.0  0.18392  0.99696  0.74893  1.0000
  N   N15       1.0  0.57182  0.99890  0.75156  1.0000
  N   N16       1.0  0.43046  0.99782  0.75252  1.0000
  B   B7        1.0  0.50375  0.62578  0.74811  1.0000
  B   B8        1.0  0.49973  0.37073  0.75441  1.0000
  N   N17       1.0  0.50157  0.91484  0.74731  1.0000
  N   N18       1.0  0.50081  0.08203  0.75778  1.0000
  N   N19       1.0  0.13131  0.99808  0.75287  1.0000
  N   N20       1.0  0.86955  0.99995  0.73840  1.0000
  C   C99       1.0  0.55368  0.48017  0.75240  1.0000
  C   C100      1.0  0.51350  0.44458  0.76102  1.0000
  C  Sn1       1.0  0.46502  0.46654  0.75462  1.0000
  C  Sn2       1.0  0.45671  0.52523  0.73925  1.0000
  C   C101      1.0  0.49714  0.56046  0.73059  1.0000
  C   C102      1.0  0.54552  0.53805  0.73717  1.0000
  H   H37       1.0  0.59110  0.46281  0.75738  1.0000
  O  Te1       1.0  0.42531  0.43040  0.76346  1.0000
  O  Te2       1.0  0.40863  0.54829  0.73250  1.0000
  H   H38       1.0  0.57660  0.56559  0.73036  1.0000
  Mg  Mg1       1.0  0.36663  0.48185  0.74923  1.0000
