data_image0
_chemical_formula_structural       C10NCNCN2O4C9NCNCN2O4C3H36C10NCNCN2O4C9NCNCN2O4C3H36SnCSn2CSnTe4Mg2SnCSn2CSnTe4Mg2SnCSn2CSnTe4Mg2SnCSn2CSnTe4Mg2SnCSn2CSnTe4Mg2SnCSn2CSnTe4Mg2SnCSn2CSnTe4Mg2SnCSn2CSnTe4Mg2SnCSn2CSnTe4Mg2SnCSn2CSnTe4Mg2SnCSn2CSnTe4Mg2SnCSn2CSnTe4Mg2SnCSn2CSnTe4Mg2SnCSn2CSnTe4Mg2SnCSn2CSnTe4Mg2SnCSn2CSnTe4Mg2SnCSn2CSnTe4Mg2SnCSn2CSnTe4Mg2SnCSn2CSnTe4Mg2SnCSn2CSnTe4Mg2SnCSn2CSnTe4Mg2SnCSn2CSnTe4Mg2SnCSn2CSnTe4Mg2SnCSn2CSnTe4Mg2SnCSn2CSnTe4Mg2SnCSn2CSnTe4Mg2SnCSn2CSnTe4Mg2SnCSn2CSnTe4Mg2SnCSn2CSnTe4Mg2SnCSn2CSnTe4Mg2SnCSn2CSnTe4Mg2SnCSn2CSnTe4Mg2SnCSn2CSnTe4Mg2SnCSn2CSnTe4Mg2SnCSn2CSnTe4Mg2SnCSn2CSnTe4Mg2SnCSn2CSnTe4Mg2SnCSn2CSnTe4Mg2SnCSn2CSnTe4Mg2SnCSn2CSnTe4Mg2SnCSn2CSnTe4Mg2SnCSn2CSnTe4Mg2SnCSn2CSnTe4Mg2SnCSn2CSnTe4Mg2SnCSn2CSnTe4Mg2SnCSn2CSnTe4Mg2SnCSn2CSnTe4Mg2SnCSn2CSnTe4Mg2
_chemical_formula_sum              "C148 N16 O16 H72 Sn192 Te192 Mg96"
_cell_length_a       44.794
_cell_length_b       49.0731
_cell_length_c       30.9345
_cell_angle_alpha    89.7012
_cell_angle_beta     91.2499
_cell_angle_gamma    90.0177

_symmetry_space_group_name_H-M    'P1'
_space_group_IT_number       1

loop_
  _space_group_symop_operation_xyz
  'x, y, z'

loop_
  _atom_site_type_symbol
  _atom_site_label
  _atom_site_symmetry_multiplicity
  _atom_site_fract_x
  _atom_site_fract_y
  _atom_site_fract_z
  _atom_site_occupancy
  C   C1        1.0  0.11706  0.10458  0.34075  1.0000
  C   C2        1.0  0.23765  0.51448  0.08967  1.0000
  C   C3        1.0  0.27767  0.92066  0.36645  1.0000
  C   C4        1.0  0.65822  0.61064  0.36048  1.0000
  C   C5        1.0  0.81540  0.42676  0.34201  1.0000
  C   C6        1.0  0.95230  0.25712  0.24933  1.0000
  C   C7        1.0  0.97785  0.27820  0.24823  1.0000
  C   C8        1.0  0.96325  0.27281  0.31992  1.0000
  C   C9        1.0  0.97703  0.25626  0.35699  1.0000
  C   C10       1.0  0.92437  0.26434  0.22026  1.0000
  N   N1        1.0  0.78102  0.08636  0.17305  1.0000
  C   C11       1.0  0.94527  0.29729  0.33485  1.0000
  N   N2        1.0  0.78871  0.42439  0.35660  1.0000
  C   C12       1.0  0.00579  0.26926  0.22251  1.0000
  N   N3        1.0  0.15475  0.44125  0.16926  1.0000
  N   N4        1.0  0.14409  0.10729  0.35552  1.0000
  O   O1        1.0  0.94489  0.25475  0.29394  1.0000
  O   O2        1.0  0.99534  0.26320  0.17819  1.0000
  O   O3        1.0  0.98683  0.28178  0.29235  1.0000
  O   O4        1.0  0.93459  0.27104  0.17766  1.0000
  C   C13       1.0  0.73501  0.51199  0.44973  1.0000
  C   C14       1.0  0.31732  0.60461  0.19358  1.0000
  C   C15       1.0  0.16089  0.41576  0.17512  1.0000
  C   C16       1.0  0.77527  0.11216  0.17157  1.0000
  C   C17       1.0  0.47832  0.75446  0.28825  1.0000
  C   C18       1.0  0.45385  0.77666  0.28764  1.0000
  C   C19       1.0  0.46454  0.76390  0.21590  1.0000
  C   C20       1.0  0.44556  0.74192  0.19410  1.0000
  C   C21       1.0  0.50697  0.76168  0.31544  1.0000
  N   N5        1.0  0.65143  0.58537  0.36676  1.0000
  C   C22       1.0  0.48061  0.78225  0.18403  1.0000
  N   N6        1.0  0.64240  0.92395  0.18532  1.0000
  C   C23       1.0  0.42590  0.76957  0.31501  1.0000
  N   N7        1.0  0.28345  0.94647  0.36592  1.0000
  N   N8        1.0  0.29010  0.60559  0.17898  1.0000
  O   O5        1.0  0.48655  0.75135  0.24429  1.0000
  O   O6        1.0  0.43607  0.76309  0.35835  1.0000
  O   O7        1.0  0.44624  0.78061  0.24291  1.0000
  O   O8        1.0  0.49707  0.76725  0.35950  1.0000
  C   C24       1.0  0.69979  0.01025  0.09245  1.0000
  C   C25       1.0  0.20284  0.02020  0.44825  1.0000
  C   C26       1.0  0.61558  0.92641  0.19935  1.0000
  H   H1        1.0  0.10468  0.08530  0.34385  1.0000
  H   H2        1.0  0.25613  0.50269  0.07613  1.0000
  H   H3        1.0  0.22523  0.52291  0.06152  1.0000
  H   H4        1.0  0.25630  0.91291  0.37849  1.0000
  H   H5        1.0  0.68126  0.61805  0.36528  1.0000
  H   H6        1.0  0.82860  0.44549  0.34669  1.0000
  H   H7        1.0  0.96047  0.23714  0.23861  1.0000
  H   H8        1.0  0.96960  0.29750  0.23420  1.0000
  H   H9        1.0  0.98994  0.23935  0.34386  1.0000
  H   H10       1.0  0.95935  0.24809  0.37736  1.0000
  H   H11       1.0  0.99179  0.26906  0.37705  1.0000
  H   H12       1.0  0.92585  0.29048  0.35301  1.0000
  H   H13       1.0  0.93724  0.30938  0.30707  1.0000
  H   H14       1.0  0.95936  0.31015  0.35583  1.0000
  H   H15       1.0  0.00007  0.27911  0.16072  1.0000
  H   H16       1.0  0.95473  0.26331  0.17468  1.0000
  H   H17       1.0  0.75335  0.52405  0.46432  1.0000
  H   H18       1.0  0.72315  0.50311  0.47727  1.0000
  H   H19       1.0  0.33099  0.58603  0.19136  1.0000
  H   H20       1.0  0.18353  0.40772  0.17035  1.0000
  H   H21       1.0  0.75350  0.11979  0.15951  1.0000
  H   H22       1.0  0.46929  0.73519  0.30088  1.0000
  H   H23       1.0  0.46291  0.79595  0.30043  1.0000
  H   H24       1.0  0.43553  0.72870  0.21850  1.0000
  H   H25       1.0  0.45948  0.72961  0.17295  1.0000
  H   H26       1.0  0.42758  0.75135  0.17455  1.0000
  H   H27       1.0  0.46438  0.79236  0.16226  1.0000
  H   H28       1.0  0.49571  0.77011  0.16441  1.0000
  H   H29       1.0  0.49370  0.79767  0.20161  1.0000
  H   H30       1.0  0.45725  0.76826  0.36161  1.0000
  H   H31       1.0  0.50227  0.75128  0.37688  1.0000
  H   H32       1.0  0.68193  0.02190  0.07570  1.0000
  H   H33       1.0  0.71254  0.00063  0.06659  1.0000
  H   H34       1.0  0.21537  0.02949  0.47546  1.0000
  H   H35       1.0  0.18525  0.00790  0.46329  1.0000
  H   H36       1.0  0.60281  0.94549  0.19578  1.0000
  C   C27       1.0  0.88102  0.60379  0.66494  1.0000
  C   C28       1.0  0.76220  0.01350  0.90569  1.0000
  C   C29       1.0  0.72360  0.41981  0.63443  1.0000
  C   C30       1.0  0.34364  0.10894  0.63767  1.0000
  C   C31       1.0  0.18661  0.92261  0.65785  1.0000
  C   C32       1.0  0.04675  0.75381  0.75386  1.0000
  C   C33       1.0  0.02198  0.77558  0.75369  1.0000
  C   C34       1.0  0.03367  0.76536  0.68153  1.0000
  C   C35       1.0  0.01606  0.74577  0.65261  1.0000
  C   C36       1.0  0.07549  0.76122  0.78086  1.0000
  N   N9        1.0  0.22040  0.58446  0.82952  1.0000
  C   C37       1.0  0.05138  0.78634  0.65611  1.0000
  N   N10       1.0  0.21295  0.92042  0.64206  1.0000
  C   C38       1.0  0.99418  0.76773  0.78074  1.0000
  N   N11       1.0  0.84685  0.94209  0.82694  1.0000
  N   N12       1.0  0.85415  0.60687  0.64966  1.0000
  O   O9        1.0  0.05367  0.75000  0.70946  1.0000
  O   O10       1.0  0.00579  0.76186  0.82470  1.0000
  O   O11       1.0  0.01322  0.77917  0.70947  1.0000
  O   O12       1.0  0.06688  0.76838  0.82400  1.0000
  C   C39       1.0  0.26210  0.01271  0.55355  1.0000
  C   C40       1.0  0.68223  0.10230  0.79928  1.0000
  C   C41       1.0  0.84093  0.91646  0.82288  1.0000
  C   C42       1.0  0.22672  0.60993  0.82406  1.0000
  C   C43       1.0  0.52062  0.25515  0.71272  1.0000
  C   C44       1.0  0.54520  0.27725  0.71301  1.0000
  C   C45       1.0  0.53226  0.26770  0.78492  1.0000
  C   C46       1.0  0.54856  0.24891  0.81693  1.0000
  C   C47       1.0  0.49213  0.26195  0.68447  1.0000
  N   N13       1.0  0.34990  0.08345  0.63264  1.0000
  C   C48       1.0  0.51384  0.28965  0.80667  1.0000
  N   N14       1.0  0.35690  0.42388  0.81802  1.0000
  C   C49       1.0  0.57331  0.26987  0.68639  1.0000
  N   N15       1.0  0.71650  0.44526  0.63112  1.0000
  N   N16       1.0  0.70973  0.10357  0.81256  1.0000
  O   O13       1.0  0.51331  0.25133  0.75711  1.0000
  O   O14       1.0  0.56252  0.26468  0.64205  1.0000
  O   O15       1.0  0.55386  0.28037  0.75738  1.0000
  O   O16       1.0  0.50145  0.26840  0.64126  1.0000
  C   C50       1.0  0.30682  0.51311  0.91137  1.0000
  C   C51       1.0  0.79458  0.52298  0.55187  1.0000
  C   C52       1.0  0.38367  0.42550  0.80353  1.0000
  H   H37       1.0  0.89328  0.58446  0.66205  1.0000
  H   H38       1.0  0.74364  0.00116  0.91800  1.0000
  H   H39       1.0  0.77366  0.02186  0.93459  1.0000
  H   H40       1.0  0.74607  0.41252  0.62649  1.0000
  H   H41       1.0  0.32086  0.11668  0.63149  1.0000
  H   H42       1.0  0.17379  0.94171  0.65508  1.0000
  H   H43       1.0  0.03828  0.73445  0.76695  1.0000
  H   H44       1.0  0.03091  0.79484  0.76664  1.0000
  H   H45       1.0  0.00401  0.73106  0.67253  1.0000
  H   H46       1.0  0.03128  0.73478  0.63151  1.0000
  H   H47       1.0  0.99989  0.75711  0.63232  1.0000
  H   H48       1.0  0.06817  0.77608  0.63666  1.0000
  H   H49       1.0  0.06285  0.80046  0.67822  1.0000
  H   H50       1.0  0.03631  0.79782  0.63431  1.0000
  H   H51       1.0  0.00153  0.77790  0.84190  1.0000
  H   H52       1.0  0.04660  0.76138  0.82859  1.0000
  H   H53       1.0  0.24292  0.02537  0.54304  1.0000
  H   H54       1.0  0.27188  0.00527  0.52344  1.0000
  H   H55       1.0  0.66871  0.08372  0.80303  1.0000
  H   H56       1.0  0.81850  0.90839  0.82920  1.0000
  H   H57       1.0  0.24949  0.61771  0.83007  1.0000
  H   H58       1.0  0.52966  0.23587  0.70041  1.0000
  H   H59       1.0  0.53615  0.29655  0.69997  1.0000
  H   H60       1.0  0.56097  0.23340  0.79933  1.0000
  H   H61       1.0  0.53233  0.23885  0.83776  1.0000
  H   H62       1.0  0.56425  0.26056  0.83734  1.0000
  H   H63       1.0  0.52821  0.30163  0.82858  1.0000
  H   H64       1.0  0.49601  0.28020  0.82534  1.0000
  H   H65       1.0  0.50365  0.30327  0.78235  1.0000
  H   H66       1.0  0.56359  0.28209  0.62696  1.0000
  H   H67       1.0  0.52176  0.26124  0.63790  1.0000
  H   H68       1.0  0.32558  0.52568  0.92338  1.0000
  H   H69       1.0  0.29651  0.50452  0.94044  1.0000
  H   H70       1.0  0.78120  0.53330  0.52633  1.0000
  H   H71       1.0  0.81202  0.51180  0.53473  1.0000
  H   H72       1.0  0.39719  0.44414  0.80702  1.0000
  C  Sn1       1.0  0.34779  0.89158  0.34372  1.0000
  C   C53       1.0  0.34333  0.86340  0.34438  1.0000
  C  Sn2       1.0  0.31446  0.85266  0.34505  1.0000
  C  Sn3       1.0  0.28952  0.87046  0.34503  1.0000
  C   C54       1.0  0.29398  0.89863  0.34435  1.0000
  C  Sn4       1.0  0.32285  0.90938  0.34369  1.0000
  O  Te1       1.0  0.37685  0.90187  0.34305  1.0000
  O  Te2       1.0  0.31056  0.82441  0.34572  1.0000
  O  Te3       1.0  0.26045  0.86015  0.34569  1.0000
  O  Te4       1.0  0.32675  0.93761  0.34301  1.0000
  Mg  Mg1       1.0  0.26662  0.82021  0.34645  1.0000
  Mg  Mg2       1.0  0.37069  0.94183  0.34226  1.0000
  C  Sn5       1.0  0.36407  0.62793  0.24369  1.0000
  C   C55       1.0  0.33496  0.62670  0.22659  1.0000
  C  Sn6       1.0  0.31972  0.65056  0.21504  1.0000
  C  Sn7       1.0  0.33386  0.67620  0.22066  1.0000
  C   C56       1.0  0.36295  0.67743  0.23774  1.0000
  C  Sn8       1.0  0.37821  0.65357  0.24931  1.0000
  O  Te5       1.0  0.37888  0.60381  0.25501  1.0000
  O  Te6       1.0  0.29063  0.64881  0.19803  1.0000
  O  Te7       1.0  0.31902  0.70033  0.20932  1.0000
  O  Te8       1.0  0.40728  0.65531  0.26631  1.0000
  Mg  Mg3       1.0  0.27969  0.68740  0.18743  1.0000
  Mg  Mg4       1.0  0.41825  0.61674  0.27690  1.0000
  C  Sn9       1.0  0.60929  0.86994  0.21434  1.0000
  C   C57       1.0  0.59943  0.89679  0.20892  1.0000
  C  Sn10      1.0  0.57354  0.90565  0.22890  1.0000
  C  Sn11      1.0  0.55716  0.88731  0.25486  1.0000
  C   C58       1.0  0.56701  0.86049  0.26028  1.0000
  C  Sn12      1.0  0.59290  0.85160  0.24030  1.0000
  O  Te9       1.0  0.63524  0.86152  0.19406  1.0000
  O  Te10      1.0  0.56413  0.93259  0.22299  1.0000
  O  Te11      1.0  0.53119  0.89576  0.27515  1.0000
  O  Te12      1.0  0.60232  0.82469  0.24621  1.0000
  Mg  Mg5       1.0  0.52740  0.93442  0.25732  1.0000
  Mg  Mg6       1.0  0.63905  0.82284  0.21191  1.0000
  C  Sn13      1.0  0.64160  0.66527  0.35631  1.0000
  C   C59       1.0  0.63648  0.63724  0.35928  1.0000
  C  Sn14      1.0  0.60938  0.62616  0.34467  1.0000
  C  Sn15      1.0  0.58694  0.64346  0.32669  1.0000
  C   C60       1.0  0.59207  0.67147  0.32372  1.0000
  C  Sn16      1.0  0.61916  0.68257  0.33833  1.0000
  O  Te13      1.0  0.66886  0.67590  0.37111  1.0000
  O  Te14      1.0  0.60477  0.59807  0.34799  1.0000
  O  Te15      1.0  0.55967  0.63280  0.31188  1.0000
  O  Te16      1.0  0.62378  0.71064  0.33501  1.0000
  Mg  Mg7       1.0  0.56396  0.59326  0.32333  1.0000
  Mg  Mg8       1.0  0.66458  0.71547  0.35963  1.0000
  C  Sn17      1.0  0.90696  0.20760  0.23519  1.0000
  C   C61       1.0  0.90780  0.23251  0.21315  1.0000
  C  Sn18      1.0  0.88294  0.24158  0.18910  1.0000
  C  Sn19      1.0  0.85670  0.22542  0.18706  1.0000
  C   C62       1.0  0.85587  0.20052  0.20909  1.0000
  C  Sn20      1.0  0.88071  0.19144  0.23314  1.0000
  O  Te17      1.0  0.93207  0.19894  0.25903  1.0000
  O  Te18      1.0  0.88431  0.26655  0.16733  1.0000
  O  Te19      1.0  0.83158  0.23410  0.16319  1.0000
  O  Te20      1.0  0.87935  0.16648  0.25491  1.0000
  Mg  Mg9       1.0  0.84434  0.26959  0.13915  1.0000
  Mg  Mg10      1.0  0.91931  0.16343  0.28312  1.0000
  C  Sn21      1.0  0.87497  0.28935  0.26365  1.0000
  C   C63       1.0  0.89795  0.28848  0.23386  1.0000
  C  Sn22      1.0  0.91361  0.31215  0.22336  1.0000
  C  Sn23      1.0  0.90615  0.33720  0.24308  1.0000
  C   C64       1.0  0.88318  0.33805  0.27285  1.0000
  C  Sn24      1.0  0.86751  0.31440  0.28336  1.0000
  O  Te21      1.0  0.85962  0.26544  0.27366  1.0000
  O  Te22      1.0  0.93649  0.31078  0.19348  1.0000
  O  Te23      1.0  0.92152  0.36112  0.23304  1.0000
  O  Te24      1.0  0.84464  0.31576  0.31324  1.0000
  Mg  Mg11      1.0  0.95092  0.34887  0.19043  1.0000
  Mg  Mg12      1.0  0.83021  0.27768  0.31633  1.0000
  C  Sn25      1.0  0.04544  0.33242  0.24667  1.0000
  C   C65       1.0  0.07202  0.33098  0.22396  1.0000
  C  Sn26      1.0  0.07660  0.30995  0.19457  1.0000
  C  Sn27      1.0  0.05414  0.28996  0.18772  1.0000
  C   C66       1.0  0.02758  0.29141  0.21042  1.0000
  C  Sn28      1.0  0.02298  0.31243  0.23982  1.0000
  O  Te25      1.0  0.04134  0.35362  0.27589  1.0000
  O  Te26      1.0  0.10336  0.30893  0.17225  1.0000
  O  Te27      1.0  0.05827  0.26875  0.15847  1.0000
  O  Te28      1.0  0.99624  0.31346  0.26212  1.0000
  Mg  Mg13      1.0  0.09848  0.27611  0.13582  1.0000
  Mg  Mg14      1.0  0.00109  0.34628  0.29854  1.0000
  C  Sn29      1.0  0.05054  0.24248  0.27411  1.0000
  C   C67       1.0  0.02946  0.24436  0.24026  1.0000
  C  Sn30      1.0  0.01536  0.22097  0.22435  1.0000
  C  Sn31      1.0  0.02246  0.19516  0.24267  1.0000
  C   C68       1.0  0.04352  0.19329  0.27651  1.0000
  C  Sn32      1.0  0.05764  0.21667  0.29244  1.0000
  O  Te29      1.0  0.06437  0.26614  0.28951  1.0000
  O  Te30      1.0  0.99436  0.22336  0.19047  1.0000
  O  Te31      1.0  0.00861  0.17149  0.22724  1.0000
  O  Te32      1.0  0.07862  0.21429  0.32630  1.0000
  Mg  Mg15      1.0  0.98153  0.18524  0.18065  1.0000
  Mg  Mg16      1.0  0.09145  0.25240  0.33616  1.0000
  C  Sn33      1.0  0.75790  0.03436  0.16571  1.0000
  C   C69       1.0  0.76544  0.06031  0.15067  1.0000
  C  Sn34      1.0  0.74782  0.07319  0.11885  1.0000
  C  Sn35      1.0  0.72211  0.05985  0.10171  1.0000
  C   C70       1.0  0.71458  0.03391  0.11675  1.0000
  C  Sn36      1.0  0.73220  0.02102  0.14857  1.0000
  O  Te33      1.0  0.77584  0.02187  0.19755  1.0000
  O  Te34      1.0  0.75581  0.09913  0.10431  1.0000
  O  Te35      1.0  0.70418  0.07236  0.06985  1.0000
  O  Te36      1.0  0.72455  0.99509  0.16311  1.0000
  Mg  Mg17      1.0  0.72428  0.10776  0.06053  1.0000
  Mg  Mg18      1.0  0.75605  0.98645  0.20691  1.0000
  C  Sn37      1.0  0.20611  0.44974  0.12049  1.0000
  C   C71       1.0  0.18602  0.45495  0.15338  1.0000
  C  Sn38      1.0  0.17942  0.48172  0.16496  1.0000
  C  Sn39      1.0  0.19318  0.50375  0.14321  1.0000
  C   C72       1.0  0.21326  0.49854  0.11034  1.0000
  C  Sn40      1.0  0.21987  0.47177  0.09874  1.0000
  O  Te37      1.0  0.21237  0.42282  0.10944  1.0000
  O  Te38      1.0  0.15927  0.48641  0.19795  1.0000
  O  Te39      1.0  0.18691  0.53068  0.15429  1.0000
  O  Te40      1.0  0.24001  0.46707  0.06577  1.0000
  Mg  Mg19      1.0  0.15795  0.52667  0.20133  1.0000
  Mg  Mg20      1.0  0.24133  0.42682  0.06235  1.0000
  C  Sn41      1.0  0.17323  0.04069  0.37062  1.0000
  C   C73       1.0  0.19177  0.04291  0.40736  1.0000
  C  Sn42      1.0  0.19231  0.06692  0.43142  1.0000
  C  Sn43      1.0  0.17393  0.08918  0.41851  1.0000
  C   C74       1.0  0.15540  0.08695  0.38180  1.0000
  C  Sn44      1.0  0.15485  0.06295  0.35771  1.0000
  O  Te41      1.0  0.17305  0.01650  0.34705  1.0000
  O  Te42      1.0  0.21103  0.06866  0.46802  1.0000
  O  Te43      1.0  0.17413  0.11338  0.44211  1.0000
  O  Te44      1.0  0.13613  0.06120  0.32113  1.0000
  Mg  Mg21      1.0  0.20340  0.10588  0.48954  1.0000
  Mg  Mg22      1.0  0.14374  0.02398  0.29960  1.0000
  C  Sn45      1.0  0.75566  0.45710  0.44181  1.0000
  C   C75       1.0  0.75510  0.48491  0.43186  1.0000
  C  Sn46      1.0  0.76228  0.49402  0.39052  1.0000
  C  Sn47      1.0  0.77015  0.47494  0.35842  1.0000
  C   C76       1.0  0.77070  0.44715  0.36837  1.0000
  C  Sn48      1.0  0.76353  0.43802  0.40972  1.0000
  O  Te45      1.0  0.74840  0.44844  0.48335  1.0000
  O  Te46      1.0  0.76158  0.52193  0.38135  1.0000
  O  Te47      1.0  0.77741  0.48362  0.31685  1.0000
  O  Te48      1.0  0.76422  0.41013  0.41889  1.0000
  Mg  Mg23      1.0  0.77324  0.52371  0.32003  1.0000
  Mg  Mg24      1.0  0.75255  0.40832  0.48018  1.0000
  C  Sn49      1.0  0.08900  0.38656  0.18411  1.0000
  C   C77       1.0  0.09378  0.35874  0.19119  1.0000
  C  Sn50      1.0  0.12244  0.34894  0.20089  1.0000
  C  Sn51      1.0  0.14683  0.36733  0.20358  1.0000
  C   C78       1.0  0.14205  0.39514  0.19651  1.0000
  C  Sn52      1.0  0.11339  0.40495  0.18680  1.0000
  O  Te49      1.0  0.06016  0.39590  0.17446  1.0000
  O  Te50      1.0  0.12667  0.32104  0.20783  1.0000
  O  Te51      1.0  0.17569  0.35797  0.21324  1.0000
  O  Te52      1.0  0.10916  0.43284  0.17987  1.0000
  Mg  Mg25      1.0  0.17013  0.31817  0.22006  1.0000
  Mg  Mg26      1.0  0.06571  0.43573  0.16766  1.0000
  C  Sn53      1.0  0.10980  0.16101  0.32544  1.0000
  C   C79       1.0  0.10037  0.13411  0.33117  1.0000
  C  Sn54      1.0  0.07391  0.12496  0.31141  1.0000
  C  Sn55      1.0  0.05651  0.14307  0.28537  1.0000
  C   C80       1.0  0.06595  0.16995  0.27965  1.0000
  C  Sn56      1.0  0.09241  0.17912  0.29940  1.0000
  O  Te53      1.0  0.13634  0.16971  0.34550  1.0000
  O  Te54      1.0  0.06493  0.09797  0.31763  1.0000
  O  Te55      1.0  0.02996  0.13434  0.26531  1.0000
  O  Te56      1.0  0.10139  0.20608  0.29319  1.0000
  Mg  Mg27      1.0  0.02710  0.09572  0.28351  1.0000
  Mg  Mg28      1.0  0.13922  0.20836  0.32727  1.0000
  C  Sn57      1.0  0.87679  0.38716  0.31014  1.0000
  C   C81       1.0  0.86526  0.36186  0.29770  1.0000
  C  Sn58      1.0  0.83448  0.35819  0.29234  1.0000
  C  Sn59      1.0  0.81482  0.38027  0.29952  1.0000
  C   C82       1.0  0.82635  0.40556  0.31195  1.0000
  C  Sn60      1.0  0.85713  0.40925  0.31733  1.0000
  O  Te57      1.0  0.90764  0.39037  0.31531  1.0000
  O  Te58      1.0  0.82347  0.33270  0.27989  1.0000
  O  Te59      1.0  0.78395  0.37704  0.29434  1.0000
  O  Te60      1.0  0.86814  0.43472  0.32976  1.0000
  Mg  Mg29      1.0  0.77973  0.33844  0.27701  1.0000
  Mg  Mg30      1.0  0.91188  0.42901  0.33263  1.0000
  C  Sn61      1.0  0.84631  0.14174  0.19150  1.0000
  C   C83       1.0  0.84157  0.16988  0.19110  1.0000
  C  Sn62      1.0  0.81259  0.18039  0.19143  1.0000
  C  Sn63      1.0  0.78784  0.16238  0.19221  1.0000
  C   C84       1.0  0.79258  0.13425  0.19263  1.0000
  C  Sn64      1.0  0.82155  0.12373  0.19229  1.0000
  O  Te61      1.0  0.87546  0.13169  0.19116  1.0000
  O  Te62      1.0  0.80842  0.20860  0.19100  1.0000
  O  Te63      1.0  0.75866  0.17246  0.19255  1.0000
  O  Te64      1.0  0.82573  0.09553  0.19273  1.0000
  Mg  Mg31      1.0  0.76444  0.21244  0.19174  1.0000
  Mg  Mg32      1.0  0.86970  0.09167  0.19200  1.0000
  C  Sn65      1.0  0.52371  0.70466  0.30615  1.0000
  C   C85       1.0  0.52452  0.73077  0.32398  1.0000
  C  Sn66      1.0  0.55106  0.74108  0.34192  1.0000
  C  Sn67      1.0  0.57734  0.72498  0.34203  1.0000
  C   C86       1.0  0.57653  0.69889  0.32421  1.0000
  C  Sn68      1.0  0.55000  0.68855  0.30627  1.0000
  O  Te65      1.0  0.49694  0.69476  0.28839  1.0000
  O  Te66      1.0  0.55131  0.76724  0.35956  1.0000
  O  Te67      1.0  0.60413  0.73490  0.35982  1.0000
  O  Te68      1.0  0.54974  0.66242  0.28863  1.0000
  Mg  Mg33      1.0  0.59322  0.77172  0.37995  1.0000
  Mg  Mg34      1.0  0.50785  0.65792  0.26821  1.0000
  C  Sn69      1.0  0.55207  0.78801  0.26622  1.0000
  C   C87       1.0  0.53178  0.78622  0.29980  1.0000
  C  Sn70      1.0  0.51824  0.80969  0.31559  1.0000
  C  Sn71      1.0  0.52512  0.83547  0.29743  1.0000
  C   C88       1.0  0.54539  0.83725  0.26386  1.0000
  C  Sn72      1.0  0.55894  0.81379  0.24805  1.0000
  O  Te69      1.0  0.56533  0.76428  0.25093  1.0000
  O  Te70      1.0  0.49804  0.80739  0.34920  1.0000
  O  Te71      1.0  0.51183  0.85920  0.31274  1.0000
  O  Te72      1.0  0.57913  0.81608  0.21446  1.0000
  Mg  Mg35      1.0  0.48576  0.84558  0.35896  1.0000
  Mg  Mg36      1.0  0.59141  0.77791  0.20466  1.0000
  C  Sn73      1.0  0.40783  0.82647  0.30053  1.0000
  C   C89       1.0  0.40943  0.80138  0.32205  1.0000
  C  Sn74      1.0  0.38518  0.79185  0.34540  1.0000
  C  Sn75      1.0  0.35877  0.80770  0.34725  1.0000
  C   C90       1.0  0.35718  0.83276  0.32573  1.0000
  C  Sn76      1.0  0.38143  0.84232  0.30238  1.0000
  O  Te73      1.0  0.43235  0.83560  0.27738  1.0000
  O  Te74      1.0  0.38730  0.76671  0.36667  1.0000
  O  Te75      1.0  0.33425  0.79854  0.37043  1.0000
  O  Te76      1.0  0.37931  0.86744  0.28112  1.0000
  Mg  Mg37      1.0  0.34793  0.76299  0.39398  1.0000
  Mg  Mg38      1.0  0.41866  0.87117  0.25379  1.0000
  C  Sn77      1.0  0.39749  0.70069  0.31150  1.0000
  C   C91       1.0  0.37721  0.69947  0.27660  1.0000
  C  Sn78      1.0  0.37436  0.72137  0.24779  1.0000
  C  Sn79      1.0  0.39218  0.74499  0.25397  1.0000
  C   C92       1.0  0.41245  0.74620  0.28885  1.0000
  C  Sn80      1.0  0.41531  0.72430  0.31769  1.0000
  O  Te77      1.0  0.39997  0.67855  0.33990  1.0000
  O  Te78      1.0  0.35392  0.71968  0.21314  1.0000
  O  Te79      1.0  0.38969  0.76713  0.22554  1.0000
  O  Te80      1.0  0.43574  0.72599  0.35231  1.0000
  Mg  Mg39      1.0  0.35869  0.75512  0.18322  1.0000
  Mg  Mg40      1.0  0.43100  0.69055  0.38224  1.0000
  C  Sn81      1.0  0.70268  0.56171  0.44542  1.0000
  C   C93       1.0  0.70795  0.53449  0.43494  1.0000
  C  Sn82      1.0  0.69713  0.52385  0.39584  1.0000
  C  Sn83      1.0  0.68073  0.54077  0.36659  1.0000
  C   C94       1.0  0.67547  0.56797  0.37708  1.0000
  C  Sn84      1.0  0.68628  0.57863  0.41617  1.0000
  O  Te81      1.0  0.71371  0.57192  0.48469  1.0000
  O  Te82      1.0  0.70267  0.49657  0.38608  1.0000
  O  Te83      1.0  0.66970  0.53054  0.32730  1.0000
  O  Te84      1.0  0.68075  0.60589  0.42594  1.0000
  Mg  Mg41      1.0  0.68305  0.49209  0.32859  1.0000
  Mg  Mg42      1.0  0.70038  0.61040  0.48340  1.0000
  C  Sn85      1.0  0.24097  0.97391  0.44922  1.0000
  C   C95       1.0  0.23100  0.99932  0.43382  1.0000
  C  Sn86      1.0  0.23554  0.00687  0.39086  1.0000
  C  Sn87      1.0  0.25032  0.98864  0.36269  1.0000
  C   C96       1.0  0.25994  0.96324  0.37809  1.0000
  C  Sn88      1.0  0.25542  0.95568  0.42105  1.0000
  O  Te85      1.0  0.23620  0.96679  0.49229  1.0000
  O  Te86      1.0  0.22573  0.03239  0.37621  1.0000
  O  Te87      1.0  0.25509  0.99578  0.31960  1.0000
  O  Te88      1.0  0.26521  0.93018  0.43570  1.0000
  Mg  Mg43      1.0  0.23734  0.03277  0.31482  1.0000
  Mg  Mg44      1.0  0.25360  0.92977  0.49707  1.0000
  C  Sn89      1.0  0.24538  0.58353  0.12788  1.0000
  C   C97       1.0  0.26587  0.58258  0.16257  1.0000
  C  Sn90      1.0  0.28118  0.55848  0.17256  1.0000
  C  Sn91      1.0  0.27590  0.53484  0.14734  1.0000
  C   C98       1.0  0.25543  0.53580  0.11267  1.0000
  C  Sn92      1.0  0.24011  0.55989  0.10265  1.0000
  O  Te89      1.0  0.23033  0.60784  0.11847  1.0000
  O  Te90      1.0  0.30155  0.55803  0.20741  1.0000
  O  Te91      1.0  0.29097  0.51052  0.15678  1.0000
  O  Te92      1.0  0.21975  0.56035  0.06783  1.0000
  Mg  Mg45      1.0  0.31656  0.52009  0.20742  1.0000
  Mg  Mg46      1.0  0.20474  0.59828  0.06777  1.0000
  C  Sn93      1.0  0.68187  0.95506  0.10443  1.0000
  C   C99       1.0  0.68023  0.98319  0.11077  1.0000
  C  Sn94      1.0  0.66871  0.99359  0.14890  1.0000
  C  Sn95      1.0  0.65864  0.97551  0.18138  1.0000
  C   C100      1.0  0.66028  0.94739  0.17504  1.0000
  C  Sn96      1.0  0.67180  0.93697  0.13691  1.0000
  O  Te93      1.0  0.69347  0.94511  0.06606  1.0000
  O  Te94      1.0  0.66695  0.02180  0.15450  1.0000
  O  Te95      1.0  0.64703  0.98548  0.21977  1.0000
  O  Te96      1.0  0.67323  0.90879  0.13131  1.0000
  Mg  Mg47      1.0  0.64937  0.02549  0.21234  1.0000
  Mg  Mg48      1.0  0.69082  0.90508  0.07349  1.0000
  C  Sn97      1.0  0.70600  0.36520  0.63686  1.0000
  C   C101      1.0  0.70138  0.39337  0.63658  1.0000
  C  Sn98      1.0  0.67643  0.40449  0.65628  1.0000
  C  Sn99      1.0  0.65568  0.38709  0.67671  1.0000
  C   C102      1.0  0.66031  0.35895  0.67699  1.0000
  C  Sn100     1.0  0.68525  0.34781  0.65729  1.0000
  O  Te97      1.0  0.73110  0.35453  0.61697  1.0000
  O  Te98      1.0  0.67229  0.43270  0.65557  1.0000
  O  Te99      1.0  0.63057  0.39779  0.69661  1.0000
  O  Te100     1.0  0.68940  0.31961  0.65800  1.0000
  Mg  Mg49      1.0  0.63468  0.43752  0.68710  1.0000
  Mg  Mg50      1.0  0.72701  0.31478  0.62650  1.0000
  C  Sn101     1.0  0.63473  0.12551  0.74976  1.0000
  C   C103      1.0  0.66397  0.12438  0.76637  1.0000
  C  Sn102     1.0  0.67906  0.14828  0.77783  1.0000
  C  Sn103     1.0  0.66463  0.17384  0.77259  1.0000
  C   C104      1.0  0.63540  0.17496  0.75600  1.0000
  C  Sn104     1.0  0.62029  0.15107  0.74452  1.0000
  O  Te101     1.0  0.62007  0.10136  0.73852  1.0000
  O  Te102     1.0  0.70829  0.14663  0.79436  1.0000
  O  Te103     1.0  0.67932  0.19799  0.78385  1.0000
  O  Te104     1.0  0.59108  0.15270  0.72801  1.0000
  Mg  Mg51      1.0  0.71893  0.18521  0.80502  1.0000
  Mg  Mg52      1.0  0.58041  0.11414  0.71736  1.0000
  C  Sn105     1.0  0.43062  0.40322  0.75514  1.0000
  C   C105      1.0  0.40126  0.40444  0.76939  1.0000
  C  Sn106     1.0  0.38539  0.38053  0.77763  1.0000
  C  Sn107     1.0  0.39917  0.35486  0.77153  1.0000
  C   C106      1.0  0.42851  0.35364  0.75729  1.0000
  C  Sn108     1.0  0.44439  0.37755  0.74904  1.0000
  O  Te105     1.0  0.44606  0.42739  0.74711  1.0000
  O  Te106     1.0  0.35606  0.38227  0.79184  1.0000
  O  Te107     1.0  0.38370  0.33068  0.77957  1.0000
  O  Te108     1.0  0.47370  0.37581  0.73485  1.0000
  Mg  Mg53      1.0  0.34424  0.34362  0.79846  1.0000
  Mg  Mg54      1.0  0.48555  0.41445  0.72824  1.0000
  C  Sn109     1.0  0.40038  0.12584  0.67355  1.0000
  C   C107      1.0  0.36980  0.12826  0.66437  1.0000
  C  Sn110     1.0  0.35752  0.15347  0.65268  1.0000
  C  Sn111     1.0  0.37618  0.17675  0.65008  1.0000
  C   C108      1.0  0.40673  0.17433  0.65925  1.0000
  C  Sn112     1.0  0.41904  0.14912  0.67095  1.0000
  O  Te109     1.0  0.41218  0.10044  0.68518  1.0000
  O  Te110     1.0  0.32689  0.15539  0.64367  1.0000
  O  Te111     1.0  0.36435  0.20217  0.63845  1.0000
  O  Te112     1.0  0.44965  0.14720  0.67996  1.0000
  Mg  Mg55      1.0  0.32132  0.19443  0.62921  1.0000
  Mg  Mg56      1.0  0.45524  0.10817  0.69439  1.0000
  C  Sn113     1.0  0.09189  0.70388  0.76894  1.0000
  C   C109      1.0  0.09220  0.72934  0.78897  1.0000
  C  Sn114     1.0  0.11822  0.73897  0.80940  1.0000
  C  Sn115     1.0  0.14448  0.72282  0.80979  1.0000
  C   C110      1.0  0.14415  0.69737  0.78977  1.0000
  C  Sn116     1.0  0.11814  0.68773  0.76934  1.0000
  O  Te113     1.0  0.06563  0.69467  0.74871  1.0000
  O  Te114     1.0  0.11799  0.76449  0.82921  1.0000
  O  Te115     1.0  0.17075  0.73205  0.83005  1.0000
  O  Te116     1.0  0.11837  0.66223  0.74953  1.0000
  Mg  Mg57      1.0  0.15929  0.76817  0.85255  1.0000
  Mg  Mg58      1.0  0.07708  0.65854  0.72616  1.0000
  C  Sn117     1.0  0.11975  0.80025  0.70613  1.0000
  C   C111      1.0  0.11758  0.82746  0.71878  1.0000
  C  Sn118     1.0  0.10380  0.83423  0.75736  1.0000
  C  Sn119     1.0  0.09196  0.81336  0.78385  1.0000
  C   C112      1.0  0.09414  0.78617  0.77119  1.0000
  C  Sn120     1.0  0.10791  0.77938  0.73262  1.0000
  O  Te117     1.0  0.13362  0.79396  0.66744  1.0000
  O  Te118     1.0  0.10189  0.86158  0.76932  1.0000
  O  Te119     1.0  0.07808  0.81968  0.82256  1.0000
  O  Te120     1.0  0.10982  0.75205  0.72066  1.0000
  Mg  Mg59      1.0  0.08096  0.85989  0.82498  1.0000
  Mg  Mg60      1.0  0.13077  0.75371  0.66502  1.0000
  C  Sn121     1.0  0.93586  0.78755  0.80013  1.0000
  C   C113      1.0  0.96248  0.78825  0.77742  1.0000
  C  Sn122     1.0  0.97460  0.81311  0.76434  1.0000
  C  Sn123     1.0  0.95981  0.83779  0.77417  1.0000
  C   C114      1.0  0.93320  0.83708  0.79686  1.0000
  C  Sn124     1.0  0.92107  0.81223  0.80996  1.0000
  O  Te121     1.0  0.92415  0.76246  0.81290  1.0000
  O  Te122     1.0  0.00124  0.81329  0.74166  1.0000
  O  Te123     1.0  0.97154  0.86289  0.76137  1.0000
  O  Te124     1.0  0.89445  0.81204  0.83262  1.0000
  Mg  Mg61      1.0  0.00836  0.85258  0.73124  1.0000
  Mg  Mg62      1.0  0.88732  0.77277  0.84308  1.0000
  C  Sn125     1.0  0.94714  0.74148  0.73258  1.0000
  C   C115      1.0  0.96893  0.74316  0.76548  1.0000
  C  Sn126     1.0  0.98316  0.71964  0.78105  1.0000
  C  Sn127     1.0  0.97547  0.69391  0.76334  1.0000
  C   C116      1.0  0.95369  0.69224  0.73046  1.0000
  C  Sn128     1.0  0.93944  0.71575  0.71488  1.0000
  O  Te125     1.0  0.93319  0.76525  0.71752  1.0000
  O  Te126     1.0  0.00487  0.72183  0.81397  1.0000
  O  Te127     1.0  0.98943  0.67013  0.77844  1.0000
  O  Te128     1.0  0.91775  0.71357  0.68197  1.0000
  Mg  Mg63      1.0  0.01758  0.68361  0.82367  1.0000
  Mg  Mg64      1.0  0.90504  0.75177  0.67223  1.0000
  C  Sn129     1.0  0.27178  0.57660  0.88115  1.0000
  C   C117      1.0  0.25141  0.57097  0.84752  1.0000
  C  Sn130     1.0  0.24537  0.54408  0.83563  1.0000
  C  Sn131     1.0  0.25999  0.52234  0.85784  1.0000
  C   C118      1.0  0.28035  0.52796  0.89145  1.0000
  C  Sn132     1.0  0.28640  0.55486  0.90336  1.0000
  O  Te129     1.0  0.27748  0.60364  0.89250  1.0000
  O  Te130     1.0  0.22492  0.53896  0.80190  1.0000
  O  Te131     1.0  0.25428  0.49528  0.84646  1.0000
  O  Te132     1.0  0.30684  0.55997  0.93708  1.0000
  Mg  Mg65      1.0  0.22462  0.49869  0.79838  1.0000
  Mg  Mg66      1.0  0.30714  0.60024  0.94064  1.0000
  C  Sn133     1.0  0.79828  0.99745  0.83292  1.0000
  C   C119      1.0  0.78107  0.99272  0.86899  1.0000
  C  Sn134     1.0  0.78781  0.97125  0.89738  1.0000
  C  Sn135     1.0  0.81263  0.95416  0.88957  1.0000
  C   C120      1.0  0.83017  0.95890  0.85352  1.0000
  C  Sn136     1.0  0.82344  0.98036  0.82510  1.0000
  O  Te133     1.0  0.79113  0.01903  0.80497  1.0000
  O  Te134     1.0  0.76993  0.96692  0.93322  1.0000
  O  Te135     1.0  0.81977  0.93257  0.91756  1.0000
  O  Te136     1.0  0.84131  0.98470  0.78928  1.0000
  Mg  Mg67      1.0  0.78872  0.93490  0.96194  1.0000
  Mg  Mg68      1.0  0.82221  0.01672  0.76056  1.0000
  C  Sn137     1.0  0.82404  0.54094  0.63114  1.0000
  C   C121      1.0  0.80558  0.54443  0.59453  1.0000
  C  Sn138     1.0  0.80545  0.56911  0.57183  1.0000
  C  Sn139     1.0  0.82417  0.59075  0.58599  1.0000
  C   C122      1.0  0.84262  0.58726  0.62258  1.0000
  C  Sn140     1.0  0.84277  0.56258  0.64530  1.0000
  O  Te137     1.0  0.82382  0.51609  0.65333  1.0000
  O  Te138     1.0  0.78679  0.57212  0.53533  1.0000
  O  Te139     1.0  0.82438  0.61562  0.56376  1.0000
  O  Te140     1.0  0.86141  0.55956  0.68178  1.0000
  Mg  Mg69      1.0  0.79504  0.60983  0.51592  1.0000
  Mg  Mg70      1.0  0.85319  0.52186  0.70120  1.0000
  C  Sn141     1.0  0.24151  0.98723  0.63203  1.0000
  C   C123      1.0  0.25568  0.98739  0.59223  1.0000
  C  Sn142     1.0  0.25299  0.96511  0.56450  1.0000
  C  Sn143     1.0  0.23576  0.94220  0.57678  1.0000
  C   C124      1.0  0.22160  0.94205  0.61656  1.0000
  C  Sn144     1.0  0.22428  0.96432  0.64432  1.0000
  O  Te141     1.0  0.24416  0.00973  0.65925  1.0000
  O  Te142     1.0  0.26737  0.96573  0.52488  1.0000
  O  Te143     1.0  0.23278  0.91969  0.54953  1.0000
  O  Te144     1.0  0.20991  0.96371  0.68392  1.0000
  Mg  Mg71      1.0  0.25659  0.93017  0.49891  1.0000
  Mg  Mg72      1.0  0.22033  0.99926  0.70990  1.0000
  C  Sn145     1.0  0.85886  0.86211  0.81928  1.0000
  C   C125      1.0  0.86335  0.89022  0.82243  1.0000
  C  Sn146     1.0  0.88984  0.90197  0.80830  1.0000
  C  Sn147     1.0  0.91231  0.88528  0.79062  1.0000
  C   C126      1.0  0.90781  0.85719  0.78747  1.0000
  C  Sn148     1.0  0.88132  0.84542  0.80160  1.0000
  O  Te145     1.0  0.83220  0.85080  0.83360  1.0000
  O  Te146     1.0  0.89382  0.93012  0.81179  1.0000
  O  Te147     1.0  0.93898  0.89662  0.77629  1.0000
  O  Te148     1.0  0.87733  0.81729  0.79811  1.0000
  Mg  Mg73      1.0  0.93396  0.93597  0.78781  1.0000
  Mg  Mg74      1.0  0.83721  0.81143  0.82205  1.0000
  C  Sn149     1.0  0.88847  0.66015  0.67972  1.0000
  C   C127      1.0  0.89793  0.63325  0.67460  1.0000
  C  Sn150     1.0  0.92393  0.62395  0.69562  1.0000
  C  Sn151     1.0  0.94081  0.64191  0.72234  1.0000
  C   C128      1.0  0.93134  0.66880  0.72745  1.0000
  C  Sn152     1.0  0.90535  0.67811  0.70644  1.0000
  O  Te149     1.0  0.86241  0.66901  0.65840  1.0000
  O  Te150     1.0  0.93295  0.59697  0.69000  1.0000
  O  Te151     1.0  0.96689  0.63303  0.74367  1.0000
  O  Te152     1.0  0.89633  0.70507  0.71206  1.0000
  Mg  Mg75      1.0  0.97001  0.59448  0.72585  1.0000
  Mg  Mg76      1.0  0.85926  0.70759  0.67625  1.0000
  C  Sn153     1.0  0.17749  0.85896  0.71185  1.0000
  C   C129      1.0  0.14733  0.85771  0.72236  1.0000
  C  Sn154     1.0  0.12734  0.87746  0.70676  1.0000
  C  Sn155     1.0  0.13771  0.89891  0.68007  1.0000
  C   C130      1.0  0.16785  0.90014  0.66956  1.0000
  C  Sn156     1.0  0.18785  0.88040  0.68516  1.0000
  O  Te153     1.0  0.19707  0.83899  0.72781  1.0000
  O  Te154     1.0  0.09730  0.87579  0.71771  1.0000
  O  Te155     1.0  0.11809  0.91888  0.66411  1.0000
  O  Te156     1.0  0.21788  0.88206  0.67421  1.0000
  Mg  Mg77      1.0  0.07927  0.90782  0.68802  1.0000
  Mg  Mg78      1.0  0.23593  0.85004  0.70387  1.0000
  C  Sn157     1.0  0.20908  0.66416  0.82167  1.0000
  C   C131      1.0  0.20448  0.63600  0.82259  1.0000
  C  Sn158     1.0  0.17796  0.62485  0.80596  1.0000
  C  Sn159     1.0  0.15557  0.64221  0.78800  1.0000
  C   C132      1.0  0.16017  0.67035  0.78708  1.0000
  C  Sn160     1.0  0.18668  0.68152  0.80371  1.0000
  O  Te157     1.0  0.23576  0.67487  0.83847  1.0000
  O  Te158     1.0  0.17388  0.59663  0.80726  1.0000
  O  Te159     1.0  0.12887  0.63148  0.77119  1.0000
  O  Te160     1.0  0.19078  0.70972  0.80241  1.0000
  Mg  Mg79      1.0  0.13375  0.59176  0.78032  1.0000
  Mg  Mg80      1.0  0.23090  0.71461  0.82932  1.0000
  C  Sn161     1.0  0.43610  0.23934  0.65828  1.0000
  C   C133      1.0  0.46155  0.24041  0.68515  1.0000
  C  Sn162     1.0  0.47314  0.21664  0.70402  1.0000
  C  Sn163     1.0  0.45901  0.19126  0.69584  1.0000
  C   C134      1.0  0.43358  0.19020  0.66898  1.0000
  C  Sn164     1.0  0.42196  0.21396  0.65010  1.0000
  O  Te161     1.0  0.42489  0.26336  0.63976  1.0000
  O  Te162     1.0  0.49861  0.21823  0.73079  1.0000
  O  Te163     1.0  0.47024  0.16724  0.71439  1.0000
  O  Te164     1.0  0.39652  0.21238  0.62335  1.0000
  Mg  Mg81      1.0  0.50543  0.17987  0.74851  1.0000
  Mg  Mg82      1.0  0.38969  0.25073  0.60558  1.0000
  C  Sn165     1.0  0.48579  0.31986  0.69521  1.0000
  C   C135      1.0  0.48236  0.29259  0.70736  1.0000
  C  Sn166     1.0  0.45784  0.28445  0.73139  1.0000
  C  Sn167     1.0  0.43628  0.30397  0.74352  1.0000
  C   C136      1.0  0.43970  0.33122  0.73137  1.0000
  C  Sn168     1.0  0.46422  0.33938  0.70734  1.0000
  O  Te165     1.0  0.51047  0.32754  0.67118  1.0000
  O  Te166     1.0  0.45491  0.25707  0.74317  1.0000
  O  Te167     1.0  0.41158  0.29627  0.76757  1.0000
  O  Te168     1.0  0.46716  0.36674  0.69555  1.0000
  Mg  Mg83      1.0  0.41740  0.25659  0.77588  1.0000
  Mg  Mg84      1.0  0.50464  0.36724  0.66283  1.0000
  C  Sn169     1.0  0.61361  0.33232  0.71381  1.0000
  C   C137      1.0  0.63867  0.33240  0.68769  1.0000
  C  Sn170     1.0  0.64160  0.31300  0.65518  1.0000
  C  Sn171     1.0  0.61900  0.29311  0.64861  1.0000
  C   C138      1.0  0.59395  0.29303  0.67472  1.0000
  C  Sn172     1.0  0.59101  0.31243  0.70725  1.0000
  O  Te169     1.0  0.61115  0.35191  0.74613  1.0000
  O  Te170     1.0  0.66687  0.31349  0.62948  1.0000
  O  Te171     1.0  0.62148  0.27351  0.61627  1.0000
  O  Te172     1.0  0.56576  0.31195  0.73293  1.0000
  Mg  Mg85      1.0  0.66005  0.28255  0.58963  1.0000
  Mg  Mg86      1.0  0.57255  0.34288  0.77277  1.0000
  C  Sn173     1.0  0.61943  0.24271  0.73548  1.0000
  C   C139      1.0  0.59839  0.24504  0.70163  1.0000
  C  Sn174     1.0  0.58447  0.22185  0.68466  1.0000
  C  Sn175     1.0  0.59172  0.19578  0.70189  1.0000
  C   C140      1.0  0.61274  0.19345  0.73571  1.0000
  C  Sn176     1.0  0.62667  0.21664  0.75270  1.0000
  O  Te173     1.0  0.63306  0.26617  0.75195  1.0000
  O  Te174     1.0  0.56351  0.22469  0.65082  1.0000
  O  Te175     1.0  0.57806  0.17231  0.68538  1.0000
  O  Te176     1.0  0.64761  0.21380  0.78653  1.0000
  Mg  Mg87      1.0  0.55096  0.18668  0.63930  1.0000
  Mg  Mg88      1.0  0.66016  0.25180  0.79809  1.0000
  C  Sn177     1.0  0.30248  0.02718  0.62499  1.0000
  C   C141      1.0  0.28267  0.03250  0.59046  1.0000
  C  Sn178     1.0  0.28719  0.05485  0.56324  1.0000
  C  Sn179     1.0  0.31205  0.07225  0.57067  1.0000
  C   C142      1.0  0.33185  0.06692  0.60518  1.0000
  C  Sn180     1.0  0.32734  0.04457  0.63242  1.0000
  O  Te177     1.0  0.29753  0.00471  0.65179  1.0000
  O  Te178     1.0  0.26707  0.05976  0.52893  1.0000
  O  Te179     1.0  0.31700  0.09472  0.54383  1.0000
  O  Te180     1.0  0.34745  0.03966  0.66671  1.0000
  Mg  Mg89      1.0  0.28337  0.09292  0.50137  1.0000
  Mg  Mg90      1.0  0.33119  0.00649  0.69427  1.0000
  C  Sn181     1.0  0.76270  0.47276  0.55170  1.0000
  C   C143      1.0  0.76798  0.49961  0.56461  1.0000
  C  Sn182     1.0  0.75920  0.50845  0.60526  1.0000
  C  Sn183     1.0  0.74487  0.49007  0.63361  1.0000
  C   C144      1.0  0.73961  0.46323  0.62071  1.0000
  C  Sn184     1.0  0.74837  0.45437  0.58006  1.0000
  O  Te181     1.0  0.77166  0.46436  0.51091  1.0000
  O  Te182     1.0  0.76471  0.53540  0.61743  1.0000
  O  Te183     1.0  0.73591  0.49849  0.67442  1.0000
  O  Te184     1.0  0.74288  0.42744  0.56788  1.0000
  Mg  Mg91      1.0  0.74834  0.53718  0.67628  1.0000
  Mg  Mg92      1.0  0.75925  0.42564  0.50905  1.0000
  C  Sn185     1.0  0.71241  0.04747  0.83056  1.0000
  C   C145      1.0  0.71639  0.07541  0.83707  1.0000
  C  Sn186     1.0  0.74010  0.08491  0.86293  1.0000
  C  Sn187     1.0  0.76026  0.06609  0.88267  1.0000
  C   C146      1.0  0.75628  0.03817  0.87616  1.0000
  C  Sn188     1.0  0.73257  0.02865  0.85031  1.0000
  O  Te185     1.0  0.68856  0.03843  0.80458  1.0000
  O  Te186     1.0  0.74361  0.11293  0.86897  1.0000
  O  Te187     1.0  0.78412  0.07516  0.90867  1.0000
  O  Te188     1.0  0.72906  0.00065  0.84426  1.0000
  Mg  Mg93      1.0  0.77956  0.11527  0.90715  1.0000
  Mg  Mg94      1.0  0.69313  0.99829  0.80606  1.0000
  C  Sn189     1.0  0.32298  0.45717  0.90142  1.0000
  C   C147      1.0  0.32497  0.48513  0.89311  1.0000
  C  Sn190     1.0  0.33436  0.49457  0.85295  1.0000
  C  Sn191     1.0  0.34189  0.47568  0.82041  1.0000
  C   C148      1.0  0.33989  0.44774  0.82872  1.0000
  C  Sn192     1.0  0.33051  0.43828  0.86887  1.0000
  O  Te189     1.0  0.31354  0.44819  0.94180  1.0000
  O  Te190     1.0  0.33619  0.52261  0.84541  1.0000
  O  Te191     1.0  0.35134  0.48468  0.78001  1.0000
  O  Te192     1.0  0.32868  0.41026  0.87642  1.0000
  Mg  Mg95      1.0  0.35021  0.52485  0.78524  1.0000
  Mg  Mg96      1.0  0.31465  0.40800  0.93657  1.0000
