data_image0
_chemical_formula_structural       N10C20H12N10C20H12N10C20H12N10C20H12C2Sn2C2HTe2HMgC2Sn2C2HTe2HMgC2Sn2C2HTe2HMgC2Sn2C2HTe2HMgC2Sn2C2HTe2HMgC2Sn2C2HTe2HMgC2Sn2C2HTe2HMgC2Sn2C2HTe2HMgC2Sn2C2HTe2HMgC2Sn2C2HTe2HMgC2Sn2C2HTe2HMgC2Sn2C2HTe2HMgC2Sn2C2HTe2HMgC2Sn2C2HTe2HMgC2Sn2C2HTe2HMgC2Sn2C2HTe2HMgC2Sn2C2HTe2HMgC2Sn2C2HTe2HMgC2Sn2C2HTe2HMgC2Sn2C2HTe2HMgC2Sn2C2HTe2HMgC2Sn2C2HTe2HMgC2Sn2C2HTe2HMgC2Sn2C2HTe2HMgC2Sn2C2HTe2HMgC2Sn2C2HTe2HMgC2Sn2C2HTe2HMgC2Sn2C2HTe2HMgC2Sn2C2HTe2HMgC2Sn2C2HTe2HMgC2Sn2C2HTe2HMgC2Sn2C2HTe2HMgC2Sn2C2HTe2HMgC2Sn2C2HTe2HMgC2Sn2C2HTe2HMgC2Sn2C2HTe2HMg
_chemical_formula_sum              "N40 C224 H120 Sn72 Te72 Mg36"
_cell_length_a       50.4905
_cell_length_b       43.2101
_cell_length_c       8.12849
_cell_angle_alpha    68.9614
_cell_angle_beta     116.013
_cell_angle_gamma    88.9743

_symmetry_space_group_name_H-M    'P1'
_space_group_IT_number       1

loop_
  _space_group_symop_operation_xyz
  'x, y, z'

loop_
  _atom_site_type_symbol
  _atom_site_label
  _atom_site_symmetry_multiplicity
  _atom_site_fract_x
  _atom_site_fract_y
  _atom_site_fract_z
  _atom_site_occupancy
  N   N1        1.0  0.29291  0.30073  0.29112  1.0000
  N   N2        1.0  0.29658  0.25171  0.25980  1.0000
  N   N3        1.0  0.21442  0.74072  0.25021  1.0000
  N   N4        1.0  0.21157  0.79212  0.25488  1.0000
  N   N5        1.0  0.06852  0.77389  0.24932  1.0000
  N   N6        1.0  0.43417  0.31071  0.24424  1.0000
  N   N7        1.0  0.25157  0.58779  0.22752  1.0000
  N   N8        1.0  0.24860  0.08646  0.24218  1.0000
  N   N9        1.0  0.27303  0.95666  0.26258  1.0000
  N   N10       1.0  0.24869  0.45746  0.23508  1.0000
  C   C1        1.0  0.26557  0.29131  0.25906  1.0000
  C   C2        1.0  0.23920  0.30751  0.24005  1.0000
  C   C3        1.0  0.21605  0.28898  0.20775  1.0000
  C   C4        1.0  0.26861  0.25987  0.24183  1.0000
  C   C5        1.0  0.24494  0.24167  0.21050  1.0000
  C   C6        1.0  0.21885  0.25767  0.19477  1.0000
  C   C7        1.0  0.31056  0.27658  0.28655  1.0000
  C   C8        1.0  0.24093  0.75114  0.26918  1.0000
  C   C9        1.0  0.26655  0.73405  0.28175  1.0000
  C   C10       1.0  0.23993  0.78369  0.27672  1.0000
  C   C11       1.0  0.28914  0.78318  0.31678  1.0000
  C   C12       1.0  0.19760  0.76494  0.24810  1.0000
  C   C13       1.0  0.26381  0.80120  0.29945  1.0000
  C   C14       1.0  0.29038  0.75150  0.30755  1.0000
  C   C15       1.0  0.27189  0.60522  0.21850  1.0000
  C   C16       1.0  0.42337  0.28361  0.28180  1.0000
  C   C17       1.0  0.08652  0.74956  0.26899  1.0000
  C   C18       1.0  0.25953  0.93348  0.32370  1.0000
  C   C19       1.0  0.26222  0.11054  0.19452  1.0000
  C   C20       1.0  0.22889  0.43994  0.25465  1.0000
  H   H1        1.0  0.29959  0.32016  0.32985  1.0000
  H   H2        1.0  0.20426  0.81239  0.27001  1.0000
  H   H3        1.0  0.19466  0.29991  0.18698  1.0000
  H   H4        1.0  0.19960  0.24553  0.16746  1.0000
  H   H5        1.0  0.30910  0.79404  0.34276  1.0000
  H   H6        1.0  0.31119  0.73973  0.32499  1.0000
  H   H7        1.0  0.29016  0.59710  0.19429  1.0000
  H   H8        1.0  0.43568  0.25877  0.31841  1.0000
  H   H9        1.0  0.08208  0.72387  0.29434  1.0000
  H   H10       1.0  0.24520  0.93747  0.38761  1.0000
  H   H11       1.0  0.27895  0.10782  0.14551  1.0000
  H   H12       1.0  0.21129  0.44825  0.28377  1.0000
  N   N11       1.0  0.69324  0.30016  0.27804  1.0000
  N   N12       1.0  0.68996  0.24798  0.28822  1.0000
  N   N13       1.0  0.81076  0.73954  0.23215  1.0000
  N   N14       1.0  0.81444  0.79135  0.22779  1.0000
  N   N15       1.0  0.95635  0.77026  0.23477  1.0000
  N   N16       1.0  0.54722  0.30839  0.26318  1.0000
  N   N17       1.0  0.76389  0.58460  0.25871  1.0000
  N   N18       1.0  0.75597  0.08451  0.27815  1.0000
  N   N19       1.0  0.75331  0.95758  0.23132  1.0000
  N   N20       1.0  0.74463  0.45597  0.26831  1.0000
  C   C21       1.0  0.71923  0.28817  0.28120  1.0000
  C   C22       1.0  0.74351  0.30330  0.27389  1.0000
  C   C23       1.0  0.76524  0.28204  0.27561  1.0000
  C   C24       1.0  0.71644  0.25491  0.28625  1.0000
  C   C25       1.0  0.73853  0.23458  0.28267  1.0000
  C   C26       1.0  0.76289  0.24974  0.27973  1.0000
  C   C27       1.0  0.67644  0.27520  0.28318  1.0000
  C   C28       1.0  0.78598  0.75273  0.23660  1.0000
  C   C29       1.0  0.76126  0.73815  0.24405  1.0000
  C   C30       1.0  0.78821  0.78556  0.23762  1.0000
  C   C31       1.0  0.74327  0.79040  0.25798  1.0000
  C   C32       1.0  0.82756  0.76283  0.22875  1.0000
  C   C33       1.0  0.76734  0.80556  0.24938  1.0000
  C   C34       1.0  0.74050  0.75842  0.25574  1.0000
  C   C35       1.0  0.74561  0.60515  0.26440  1.0000
  C   C36       1.0  0.55986  0.28573  0.23492  1.0000
  C   C37       1.0  0.94111  0.74653  0.23397  1.0000
  C   C38       1.0  0.77658  0.93713  0.27285  1.0000
  C   C39       1.0  0.73495  0.10117  0.28374  1.0000
  C   C40       1.0  0.75881  0.43821  0.22117  1.0000
  H   H13       1.0  0.68681  0.32382  0.26205  1.0000
  H   H14       1.0  0.82269  0.81261  0.22473  1.0000
  H   H15       1.0  0.78509  0.29107  0.27398  1.0000
  H   H16       1.0  0.78088  0.23620  0.27691  1.0000
  H   H17       1.0  0.72671  0.80344  0.27556  1.0000
  H   H18       1.0  0.72161  0.74867  0.27021  1.0000
  H   H19       1.0  0.72506  0.59902  0.27252  1.0000
  H   H20       1.0  0.54927  0.26508  0.20359  1.0000
  H   H21       1.0  0.94881  0.72227  0.23693  1.0000
  H   H22       1.0  0.79929  0.94272  0.32645  1.0000
  H   H23       1.0  0.71497  0.09144  0.28389  1.0000
  H   H24       1.0  0.77457  0.44777  0.16489  1.0000
  N   N21       1.0  0.31124  0.28549  0.79366  1.0000
  N   N22       1.0  0.31299  0.23624  0.76043  1.0000
  N   N23       1.0  0.18714  0.73112  0.75672  1.0000
  N   N24       1.0  0.18445  0.78238  0.76456  1.0000
  N   N25       1.0  0.04212  0.77188  0.75686  1.0000
  N   N26       1.0  0.45250  0.29097  0.75475  1.0000
  N   N27       1.0  0.22936  0.57896  0.69792  1.0000
  N   N28       1.0  0.24114  0.07870  0.71912  1.0000
  N   N29       1.0  0.24549  0.94597  0.75740  1.0000
  N   N30       1.0  0.25256  0.44855  0.72481  1.0000
  C   C41       1.0  0.28349  0.27718  0.76207  1.0000
  C   C42       1.0  0.25795  0.29425  0.74718  1.0000
  C   C43       1.0  0.23396  0.27703  0.71168  1.0000
  C   C44       1.0  0.28511  0.24578  0.74112  1.0000
  C   C45       1.0  0.26046  0.22894  0.70737  1.0000
  C   C46       1.0  0.23518  0.24629  0.69340  1.0000
  C   C47       1.0  0.32821  0.26012  0.79225  1.0000
  C   C48       1.0  0.21228  0.74316  0.75477  1.0000
  C   C49       1.0  0.23697  0.72803  0.74908  1.0000
  C   C50       1.0  0.21101  0.77574  0.76084  1.0000
  C   C51       1.0  0.25769  0.77918  0.76307  1.0000
  C   C52       1.0  0.17114  0.75458  0.76584  1.0000
  C   C53       1.0  0.23300  0.79530  0.76150  1.0000
  C   C54       1.0  0.25931  0.74744  0.75527  1.0000
  C   C55       1.0  0.25035  0.59629  0.73253  1.0000
  C   C56       1.0  0.44125  0.26408  0.78666  1.0000
  C   C57       1.0  0.05740  0.74759  0.75573  1.0000
  C   C58       1.0  0.22208  0.93256  0.70590  1.0000
  C   C59       1.0  0.26360  0.09366  0.73363  1.0000
  C   C60       1.0  0.23497  0.42716  0.72917  1.0000
  H   H25       1.0  0.31978  0.30249  0.85163  1.0000
  H   H26       1.0  0.17950  0.80055  0.80411  1.0000
  H   H27       1.0  0.21304  0.28846  0.69375  1.0000
  H   H28       1.0  0.21506  0.23579  0.66478  1.0000
  H   H29       1.0  0.27567  0.79248  0.76082  1.0000
  H   H30       1.0  0.27876  0.73796  0.74910  1.0000
  H   H31       1.0  0.27345  0.58599  0.77235  1.0000
  H   H32       1.0  0.45247  0.23946  0.81214  1.0000
  H   H33       1.0  0.04941  0.72434  0.74921  1.0000
  H   H34       1.0  0.19909  0.94672  0.64307  1.0000
  H   H35       1.0  0.28508  0.08104  0.76014  1.0000
  H   H36       1.0  0.21341  0.43279  0.72648  1.0000
  N   N31       1.0  0.71250  0.28760  0.80508  1.0000
  N   N32       1.0  0.70732  0.23796  0.77741  1.0000
  N   N33       1.0  0.78675  0.73011  0.75339  1.0000
  N   N34       1.0  0.78770  0.78220  0.74816  1.0000
  N   N35       1.0  0.92937  0.77308  0.73785  1.0000
  N   N36       1.0  0.56507  0.29243  0.76875  1.0000
  N   N37       1.0  0.74655  0.57744  0.72009  1.0000
  N   N38       1.0  0.75889  0.07347  0.74189  1.0000
  N   N39       1.0  0.72749  0.94915  0.73485  1.0000
  N   N40       1.0  0.74817  0.44570  0.74417  1.0000
  C   C61       1.0  0.73818  0.27621  0.80154  1.0000
  C   C62       1.0  0.76244  0.29158  0.79727  1.0000
  C   C63       1.0  0.78411  0.27120  0.79296  1.0000
  C   C64       1.0  0.73454  0.24445  0.78706  1.0000
  C   C65       1.0  0.75702  0.22419  0.78639  1.0000
  C   C66       1.0  0.78184  0.23907  0.79169  1.0000
  C   C67       1.0  0.69508  0.26315  0.79510  1.0000
  C   C68       1.0  0.76022  0.74271  0.74095  1.0000
  C   C69       1.0  0.73512  0.72752  0.73279  1.0000
  C   C70       1.0  0.76026  0.77617  0.73510  1.0000
  C   C71       1.0  0.71200  0.78084  0.71102  1.0000
  C   C72       1.0  0.80264  0.75430  0.75513  1.0000
  C   C73       1.0  0.73631  0.79674  0.71729  1.0000
  C   C74       1.0  0.71153  0.74802  0.71858  1.0000
  C   C75       1.0  0.72901  0.59267  0.75843  1.0000
  C   C76       1.0  0.57744  0.27154  0.72858  1.0000
  C   C77       1.0  0.91278  0.75096  0.71125  1.0000
  C   C78       1.0  0.74058  0.93250  0.67680  1.0000
  C   C79       1.0  0.74539  0.09137  0.79195  1.0000
  C   C80       1.0  0.76911  0.42819  0.74272  1.0000
  H   H37       1.0  0.71241  0.30297  0.87471  1.0000
  H   H38       1.0  0.79543  0.80344  0.75299  1.0000
  H   H39       1.0  0.80355  0.28095  0.78796  1.0000
  H   H40       1.0  0.80013  0.22523  0.79280  1.0000
  H   H41       1.0  0.69226  0.79496  0.69405  1.0000
  H   H42       1.0  0.69140  0.73833  0.70852  1.0000
  H   H43       1.0  0.71299  0.58060  0.80501  1.0000
  H   H44       1.0  0.56615  0.25256  0.67918  1.0000
  H   H45       1.0  0.91854  0.72996  0.67849  1.0000
  H   H46       1.0  0.75567  0.94343  0.61741  1.0000
  H   H47       1.0  0.72863  0.08222  0.83931  1.0000
  H   H48       1.0  0.78899  0.43744  0.73726  1.0000
  C   C81       1.0  0.37142  0.31554  0.26876  1.0000
  C   C82       1.0  0.39164  0.29011  0.28960  1.0000
  C  Sn1       1.0  0.38433  0.25865  0.30050  1.0000
  C  Sn2       1.0  0.35623  0.25262  0.29026  1.0000
  C   C83       1.0  0.33614  0.27824  0.26926  1.0000
  C   C84       1.0  0.34370  0.30962  0.25857  1.0000
  H   H49       1.0  0.37726  0.33983  0.26037  1.0000
  O  Te1       1.0  0.40480  0.23352  0.32139  1.0000
  O  Te2       1.0  0.34834  0.22142  0.30071  1.0000
  H   H50       1.0  0.32803  0.32931  0.24230  1.0000
  Mg  Mg1       1.0  0.38378  0.19517  0.32907  1.0000
  C   C85       1.0  0.28074  0.52609  0.26486  1.0000
  C   C86       1.0  0.25836  0.55178  0.22093  1.0000
  C  Sn3       1.0  0.22966  0.54587  0.18620  1.0000
  C  Sn4       1.0  0.22330  0.51360  0.19578  1.0000
  C   C87       1.0  0.24584  0.48805  0.23997  1.0000
  C   C88       1.0  0.27449  0.49425  0.27441  1.0000
  H   H51       1.0  0.30291  0.53087  0.29161  1.0000
  O  Te3       1.0  0.20757  0.57182  0.14244  1.0000
  O  Te4       1.0  0.19481  0.50699  0.16177  1.0000
  H   H52       1.0  0.29181  0.47434  0.30854  1.0000
  Mg  Mg2       1.0  0.17217  0.55051  0.10746  1.0000
  C   C89       1.0  0.23098  0.02719  0.22522  1.0000
  C   C90       1.0  0.25101  0.04901  0.25476  1.0000
  C  Sn5       1.0  0.27953  0.04087  0.27552  1.0000
  C  Sn6       1.0  0.28809  0.01032  0.26642  1.0000
  C   C91       1.0  0.26788  0.98867  0.23668  1.0000
  C   C92       1.0  0.23940  0.99705  0.21616  1.0000
  H   H53       1.0  0.20893  0.03368  0.20923  1.0000
  O  Te5       1.0  0.29927  0.06295  0.30501  1.0000
  O  Te6       1.0  0.31645  0.00157  0.28664  1.0000
  H   H54       1.0  0.20856  0.98017  0.19316  1.0000
  Mg  Mg3       1.0  0.33545  0.03990  0.32438  1.0000
  C   C93       1.0  0.15412  0.72582  0.27330  1.0000
  C   C94       1.0  0.16628  0.75488  0.24254  1.0000
  C  Sn7       1.0  0.15224  0.78448  0.22932  1.0000
  C  Sn8       1.0  0.12554  0.78491  0.24735  1.0000
  C   C95       1.0  0.11357  0.75570  0.27824  1.0000
  C   C96       1.0  0.12780  0.72622  0.29116  1.0000
  H   H55       1.0  0.16514  0.70301  0.28341  1.0000
  O  Te7       1.0  0.16467  0.81330  0.19849  1.0000
  O  Te8       1.0  0.11105  0.81415  0.23479  1.0000
  H   H56       1.0  0.11839  0.70372  0.31511  1.0000
  Mg  Mg4       1.0  0.13668  0.84702  0.19171  1.0000
  C   C97       1.0  0.27672  0.17476  0.15272  1.0000
  C   C98       1.0  0.26210  0.14816  0.19475  1.0000
  C  Sn9       1.0  0.23828  0.15238  0.23401  1.0000
  C  Sn10      1.0  0.22897  0.18385  0.23096  1.0000
  C   C99       1.0  0.24374  0.21032  0.18861  1.0000
  C   C100      1.0  0.26755  0.20581  0.14961  1.0000
  H   H57       1.0  0.29514  0.17128  0.12243  1.0000
  O  Te9       1.0  0.22392  0.12554  0.27581  1.0000
  O  Te10      1.0  0.20522  0.18877  0.26958  1.0000
  H   H58       1.0  0.27886  0.22642  0.11693  1.0000
  Mg  Mg5       1.0  0.19272  0.14458  0.31886  1.0000
  C   C101      1.0  0.24060  0.85413  0.37015  1.0000
  C   C102      1.0  0.25707  0.83819  0.31171  1.0000
  C  Sn11      1.0  0.27746  0.85396  0.25499  1.0000
  C  Sn12      1.0  0.28138  0.88628  0.25701  1.0000
  C   C103      1.0  0.26481  0.90200  0.31585  1.0000
  C   C104      1.0  0.24446  0.88600  0.37226  1.0000
  H   H59       1.0  0.22487  0.84175  0.41390  1.0000
  O  Te11      1.0  0.29373  0.83768  0.19694  1.0000
  O  Te12      1.0  0.30161  0.90260  0.20111  1.0000
  H   H60       1.0  0.23172  0.89834  0.41762  1.0000
  Mg  Mg6       1.0  0.31860  0.87017  0.13364  1.0000
  C   C105      1.0  0.25627  0.37223  0.18927  1.0000
  C   C106      1.0  0.24095  0.34648  0.23341  1.0000
  C  Sn13      1.0  0.21848  0.35147  0.28300  1.0000
  C  Sn14      1.0  0.21125  0.38286  0.28833  1.0000
  C   C107      1.0  0.22669  0.40848  0.24379  1.0000
  C   C108      1.0  0.24915  0.40321  0.19441  1.0000
  H   H61       1.0  0.27364  0.36817  0.15095  1.0000
  O  Te13      1.0  0.20340  0.32547  0.32676  1.0000
  O  Te14      1.0  0.18887  0.38854  0.33736  1.0000
  H   H62       1.0  0.26099  0.42316  0.16011  1.0000
  Mg  Mg7       1.0  0.17467  0.34534  0.38532  1.0000
  C   C109      1.0  0.29626  0.68055  0.24748  1.0000
  C   C110      1.0  0.27380  0.69881  0.25342  1.0000
  C  Sn15      1.0  0.24951  0.68477  0.26248  1.0000
  C  Sn16      1.0  0.24772  0.65184  0.26570  1.0000
  C   C111      1.0  0.27031  0.63378  0.25985  1.0000
  C   C112      1.0  0.29452  0.64807  0.25073  1.0000
  H   H63       1.0  0.31500  0.69160  0.24053  1.0000
  O  Te15      1.0  0.22726  0.70336  0.26825  1.0000
  O  Te16      1.0  0.22369  0.63720  0.27481  1.0000
  H   H64       1.0  0.31191  0.63392  0.24626  1.0000
  Mg  Mg8       1.0  0.19894  0.67255  0.28000  1.0000
  C   C113      1.0  0.48527  0.33722  0.28670  1.0000
  C   C114      1.0  0.46441  0.31700  0.23626  1.0000
  C  Sn17      1.0  0.47167  0.28955  0.20041  1.0000
  C  Sn18      1.0  0.50037  0.28228  0.21552  1.0000
  C   C115      1.0  0.52109  0.30265  0.26622  1.0000
  C   C116      1.0  0.51358  0.33006  0.30171  1.0000
  H   H65       1.0  0.47948  0.35842  0.31427  1.0000
  O  Te17      1.0  0.45056  0.26961  0.15010  1.0000
  O  Te18      1.0  0.50821  0.25499  0.18056  1.0000
  H   H66       1.0  0.52975  0.34570  0.34090  1.0000
  Mg  Mg9       1.0  0.47178  0.23522  0.11637  1.0000
  C   C117      1.0  0.02063  0.73765  0.22833  1.0000
  C   C118      1.0  0.03730  0.76306  0.23510  1.0000
  C  Sn19      1.0  0.02764  0.79122  0.25640  1.0000
  C  Sn20      1.0  0.00079  0.79390  0.27121  1.0000
  C   C119      1.0  0.98429  0.76833  0.26441  1.0000
  C   C120      1.0  0.99415  0.74027  0.24300  1.0000
  H   H67       1.0  0.02827  0.71593  0.21187  1.0000
  O  Te19      1.0  0.04455  0.81639  0.26283  1.0000
  O  Te20      1.0  0.99062  0.82177  0.29266  1.0000
  H   H68       1.0  0.98126  0.72059  0.23789  1.0000
  Mg  Mg10      1.0  0.02145  0.84949  0.29368  1.0000
  C   C121      1.0  0.60749  0.25320  0.22190  1.0000
  C   C122      1.0  0.59263  0.27642  0.25280  1.0000
  C  Sn21      1.0  0.60558  0.30304  0.29099  1.0000
  C  Sn22      1.0  0.63392  0.30641  0.29823  1.0000
  C   C123      1.0  0.64860  0.28305  0.26698  1.0000
  C   C124      1.0  0.63545  0.25651  0.22895  1.0000
  H   H69       1.0  0.59731  0.23266  0.19237  1.0000
  O  Te21      1.0  0.59043  0.32602  0.32159  1.0000
  O  Te22      1.0  0.64737  0.33279  0.33604  1.0000
  H   H70       1.0  0.64695  0.23854  0.20490  1.0000
  Mg  Mg11      1.0  0.61792  0.35770  0.36810  1.0000
  C   C125      1.0  0.72668  0.53485  0.24964  1.0000
  C   C126      1.0  0.75114  0.55043  0.26393  1.0000
  C  Sn23      1.0  0.77591  0.53453  0.26811  1.0000
  C  Sn24      1.0  0.77613  0.50245  0.25773  1.0000
  C   C127      1.0  0.75153  0.48709  0.24333  1.0000
  C   C128      1.0  0.72686  0.50321  0.23932  1.0000
  H   H71       1.0  0.70758  0.54733  0.24643  1.0000
  O  Te23      1.0  0.80018  0.55045  0.28250  1.0000
  O  Te24      1.0  0.80059  0.48601  0.26155  1.0000
  H   H72       1.0  0.70791  0.49115  0.22813  1.0000
  Mg  Mg12      1.0  0.82832  0.51792  0.28252  1.0000
  C   C129      1.0  0.72844  0.01006  0.27039  1.0000
  C   C130      1.0  0.74786  0.99363  0.23274  1.0000
  C  Sn25      1.0  0.77237  0.00696  0.22247  1.0000
  C  Sn26      1.0  0.77748  0.03731  0.25053  1.0000
  C   C131      1.0  0.75794  0.05354  0.28826  1.0000
  C   C132      1.0  0.73348  0.03998  0.29816  1.0000
  H   H73       1.0  0.70952  0.99956  0.27816  1.0000
  O  Te25      1.0  0.79154  0.99023  0.18465  1.0000
  O  Te26      1.0  0.80181  0.05118  0.24112  1.0000
  H   H74       1.0  0.71846  0.05270  0.32744  1.0000
  Mg  Mg13      1.0  0.82162  0.01907  0.18575  1.0000
  C   C133      1.0  0.87341  0.72417  0.22584  1.0000
  C   C134      1.0  0.85969  0.75048  0.24237  1.0000
  C  Sn27      1.0  0.87263  0.77867  0.24721  1.0000
  C  Sn28      1.0  0.89979  0.78049  0.23519  1.0000
  C   C135      1.0  0.91333  0.75405  0.21854  1.0000
  C   C136      1.0  0.90020  0.72596  0.21390  1.0000
  H   H75       1.0  0.86325  0.70244  0.22213  1.0000
  O  Te27      1.0  0.85863  0.80472  0.26385  1.0000
  O  Te28      1.0  0.91320  0.80838  0.23962  1.0000
  H   H76       1.0  0.91082  0.70560  0.20097  1.0000
  Mg  Mg14      1.0  0.88558  0.83747  0.26387  1.0000
  C   C137      1.0  0.70901  0.16004  0.28656  1.0000
  C   C138      1.0  0.72856  0.13942  0.27031  1.0000
  C  Sn29      1.0  0.75450  0.14936  0.26589  1.0000
  C  Sn30      1.0  0.76094  0.18053  0.27805  1.0000
  C   C139      1.0  0.74125  0.20097  0.29441  1.0000
  C   C140      1.0  0.71535  0.19079  0.29863  1.0000
  H   H77       1.0  0.68898  0.15215  0.28994  1.0000
  O  Te29      1.0  0.77378  0.12845  0.24953  1.0000
  O  Te30      1.0  0.78672  0.19107  0.27404  1.0000
  H   H78       1.0  0.70023  0.20675  0.31135  1.0000
  Mg  Mg15      1.0  0.80608  0.15383  0.25005  1.0000
  C   C141      1.0  0.74113  0.88946  0.16585  1.0000
  C   C142      1.0  0.76672  0.90203  0.25083  1.0000
  C  Sn31      1.0  0.79547  0.88236  0.33805  1.0000
  C  Sn32      1.0  0.79858  0.84951  0.33994  1.0000
  C   C143      1.0  0.77284  0.83718  0.25439  1.0000
  C   C144      1.0  0.74418  0.85708  0.16758  1.0000
  H   H79       1.0  0.71896  0.90486  0.09857  1.0000
  O  Te31      1.0  0.82080  0.89529  0.42235  1.0000
  O  Te32      1.0  0.82704  0.82933  0.42604  1.0000
  H   H80       1.0  0.72437  0.84735  0.10167  1.0000
  Mg  Mg16      1.0  0.85476  0.85815  0.52196  1.0000
  C   C145      1.0  0.72837  0.36446  0.31546  1.0000
  C   C146      1.0  0.74213  0.34227  0.27255  1.0000
  C  Sn33      1.0  0.76369  0.35144  0.21030  1.0000
  C  Sn34      1.0  0.77157  0.38344  0.19083  1.0000
  C   C147      1.0  0.75769  0.40545  0.23425  1.0000
  C   C148      1.0  0.73614  0.39602  0.29637  1.0000
  H   H81       1.0  0.71171  0.35716  0.36363  1.0000
  O  Te33      1.0  0.77721  0.32897  0.16797  1.0000
  O  Te34      1.0  0.79305  0.39324  0.12896  1.0000
  H   H82       1.0  0.72551  0.41320  0.32971  1.0000
  Mg  Mg17      1.0  0.80519  0.35385  0.08867  1.0000
  C   C149      1.0  0.72657  0.68596  0.23811  1.0000
  C   C150      1.0  0.75093  0.70156  0.24856  1.0000
  C  Sn35      1.0  0.77573  0.68522  0.25512  1.0000
  C  Sn36      1.0  0.77609  0.65267  0.25108  1.0000
  C   C151      1.0  0.75160  0.63728  0.24047  1.0000
  C   C152      1.0  0.72690  0.65386  0.23404  1.0000
  H   H83       1.0  0.70746  0.69879  0.23302  1.0000
  O  Te35      1.0  0.79988  0.70116  0.26561  1.0000
  O  Te36      1.0  0.80058  0.63577  0.25739  1.0000
  H   H84       1.0  0.70804  0.64178  0.22582  1.0000
  Mg  Mg18      1.0  0.82813  0.66792  0.27119  1.0000
  C   C153      1.0  0.37911  0.22976  0.79944  1.0000
  C   C154      1.0  0.36191  0.25332  0.81420  1.0000
  C  Sn37      1.0  0.37051  0.28391  0.81329  1.0000
  C  Sn38      1.0  0.39682  0.29097  0.79725  1.0000
  C   C155      1.0  0.41387  0.26724  0.78242  1.0000
  C   C156      1.0  0.40506  0.23670  0.78353  1.0000
  H   H85       1.0  0.37229  0.20614  0.80019  1.0000
  O  Te37      1.0  0.35307  0.30717  0.82823  1.0000
  O  Te38      1.0  0.40593  0.32135  0.79590  1.0000
  H   H86       1.0  0.41837  0.21847  0.77197  1.0000
  Mg  Mg19      1.0  0.37473  0.34501  0.81992  1.0000
  C   C157      1.0  0.26407  0.52886  0.67596  1.0000
  C   C158      1.0  0.24097  0.54542  0.68446  1.0000
  C  Sn39      1.0  0.22001  0.52795  0.72469  1.0000
  C  Sn40      1.0  0.22227  0.49327  0.75700  1.0000
  C   C159      1.0  0.24547  0.47693  0.74832  1.0000
  C   C160      1.0  0.26633  0.49465  0.70789  1.0000
  H   H87       1.0  0.28022  0.54256  0.64479  1.0000
  O  Te39      1.0  0.19707  0.54489  0.73257  1.0000
  O  Te40      1.0  0.20163  0.47520  0.79757  1.0000
  H   H88       1.0  0.28422  0.48181  0.70145  1.0000
  Mg  Mg20      1.0  0.17435  0.50940  0.79280  1.0000
  C   C161      1.0  0.26887  0.02146  0.70932  1.0000
  C   C162      1.0  0.24796  0.04295  0.71027  1.0000
  C  Sn41      1.0  0.22456  0.03095  0.74479  1.0000
  C  Sn42      1.0  0.22210  0.99679  0.77900  1.0000
  C   C163      1.0  0.24314  0.97549  0.77789  1.0000
  C   C164      1.0  0.26647  0.98777  0.74313  1.0000
  H   H89       1.0  0.28692  0.03095  0.68254  1.0000
  O  Te41      1.0  0.20386  0.05275  0.74515  1.0000
  O  Te42      1.0  0.19894  0.98413  0.81396  1.0000
  H   H90       1.0  0.28266  0.97112  0.74254  1.0000
  Mg  Mg21      1.0  0.17625  0.02369  0.79976  1.0000
  C   C165      1.0  0.11961  0.78431  0.76330  1.0000
  C   C166      1.0  0.13970  0.75972  0.77654  1.0000
  C  Sn43      1.0  0.13201  0.72892  0.77424  1.0000
  C  Sn44      1.0  0.10367  0.72270  0.75833  1.0000
  C   C167      1.0  0.08372  0.74747  0.74503  1.0000
  C   C168      1.0  0.09164  0.77820  0.74753  1.0000
  H   H91       1.0  0.12572  0.80809  0.76513  1.0000
  O  Te43      1.0  0.15236  0.70463  0.78767  1.0000
  O  Te44      1.0  0.09542  0.69214  0.75561  1.0000
  H   H92       1.0  0.07607  0.79724  0.73715  1.0000
  Mg  Mg22      1.0  0.13082  0.66693  0.77783  1.0000
  C   C169      1.0  0.23268  0.17175  0.69236  1.0000
  C   C170      1.0  0.25495  0.19096  0.70851  1.0000
  C  Sn45      1.0  0.28161  0.17889  0.71730  1.0000
  C  Sn46      1.0  0.28598  0.14701  0.70969  1.0000
  C   C171      1.0  0.26355  0.12800  0.69338  1.0000
  C   C172      1.0  0.23696  0.14030  0.68477  1.0000
  H   H93       1.0  0.21210  0.18128  0.68559  1.0000
  O  Te45      1.0  0.30364  0.19840  0.73349  1.0000
  O  Te46      1.0  0.31240  0.13435  0.71811  1.0000
  H   H94       1.0  0.21971  0.12544  0.67214  1.0000
  Mg  Mg23      1.0  0.33580  0.17030  0.73997  1.0000
  C   C173      1.0  0.19679  0.85901  0.65334  1.0000
  C   C174      1.0  0.22247  0.83593  0.71471  1.0000
  C  Sn47      1.0  0.25097  0.84352  0.79526  1.0000
  C  Sn48      1.0  0.25375  0.87481  0.81460  1.0000
  C   C175      1.0  0.22793  0.89772  0.75290  1.0000
  C   C176      1.0  0.19952  0.88987  0.67243  1.0000
  H   H95       1.0  0.17481  0.85293  0.59118  1.0000
  O  Te47      1.0  0.27638  0.82017  0.85576  1.0000
  O  Te48      1.0  0.28197  0.88304  0.89467  1.0000
  H   H96       1.0  0.17965  0.90774  0.62506  1.0000
  Mg  Mg24      1.0  0.30992  0.84294  0.95577  1.0000
  C   C177      1.0  0.27482  0.35934  0.72154  1.0000
  C   C178      1.0  0.26022  0.33244  0.75688  1.0000
  C  Sn49      1.0  0.23503  0.33636  0.78337  1.0000
  C  Sn50      1.0  0.22430  0.36783  0.77418  1.0000
  C   C179      1.0  0.23904  0.39459  0.73861  1.0000
  C   C180      1.0  0.26424  0.39039  0.71238  1.0000
  H   H97       1.0  0.29430  0.35609  0.70113  1.0000
  O  Te49      1.0  0.22072  0.30923  0.81862  1.0000
  O  Te50      1.0  0.19916  0.37245  0.80006  1.0000
  H   H98       1.0  0.27552  0.41122  0.68489  1.0000
  Mg  Mg25      1.0  0.18732  0.32792  0.84444  1.0000
  C   C181      1.0  0.27171  0.65646  0.74096  1.0000
  C   C182      1.0  0.25267  0.63341  0.74261  1.0000
  C  Sn51      1.0  0.22502  0.64224  0.73191  1.0000
  C  Sn52      1.0  0.21634  0.67477  0.71929  1.0000
  C   C183      1.0  0.23555  0.69765  0.71760  1.0000
  C   C184      1.0  0.26316  0.68856  0.72843  1.0000
  H   H99       1.0  0.29307  0.64943  0.74924  1.0000
  O  Te51      1.0  0.20627  0.61890  0.73381  1.0000
  O  Te52      1.0  0.18883  0.68425  0.70835  1.0000
  H   H100      1.0  0.27789  0.70642  0.72702  1.0000
  Mg  Mg26      1.0  0.17103  0.64363  0.71595  1.0000
  C   C185      1.0  0.50145  0.32046  0.77910  1.0000
  C   C186      1.0  0.48233  0.29792  0.74420  1.0000
  C  Sn53      1.0  0.49156  0.26933  0.72474  1.0000
  C  Sn54      1.0  0.52047  0.26326  0.74064  1.0000
  C   C187      1.0  0.53944  0.28596  0.77572  1.0000
  C   C188      1.0  0.52998  0.31449  0.79488  1.0000
  H   H101      1.0  0.49414  0.34253  0.79404  1.0000
  O  Te53      1.0  0.47217  0.24708  0.68982  1.0000
  O  Te54      1.0  0.53026  0.23488  0.72187  1.0000
  H   H102      1.0  0.54479  0.33193  0.82204  1.0000
  Mg  Mg27      1.0  0.49571  0.21195  0.67501  1.0000
  C   C189      1.0  0.97674  0.73974  0.71580  1.0000
  C   C190      1.0  0.96063  0.76256  0.74203  1.0000
  C  Sn55      1.0  0.97116  0.79135  0.76244  1.0000
  C  Sn56      1.0  0.99832  0.79735  0.75634  1.0000
  C   C191      1.0  0.01425  0.77438  0.72989  1.0000
  C   C192      1.0  0.00352  0.74565  0.70969  1.0000
  H   H103      1.0  0.96843  0.71752  0.70006  1.0000
  O  Te55      1.0  0.95479  0.81387  0.78861  1.0000
  O  Te56      1.0  0.00934  0.82592  0.77627  1.0000
  H   H104      1.0  0.01599  0.72800  0.68925  1.0000
  Mg  Mg28      1.0  0.97901  0.84920  0.80894  1.0000
  C   C193      1.0  0.63182  0.29786  0.80771  1.0000
  C   C194      1.0  0.61099  0.27772  0.75451  1.0000
  C  Sn57      1.0  0.61886  0.24967  0.72559  1.0000
  C  Sn58      1.0  0.64813  0.24167  0.75056  1.0000
  C   C195      1.0  0.66881  0.26196  0.80395  1.0000
  C   C196      1.0  0.66070  0.28998  0.83245  1.0000
  H   H105      1.0  0.62555  0.31953  0.82988  1.0000
  O  Te57      1.0  0.59778  0.22983  0.67240  1.0000
  O  Te58      1.0  0.65659  0.21377  0.72266  1.0000
  H   H106      1.0  0.67683  0.30555  0.87377  1.0000
  Mg  Mg29      1.0  0.61994  0.19443  0.65098  1.0000
  C   C197      1.0  0.77560  0.52028  0.74446  1.0000
  C   C198      1.0  0.75163  0.54136  0.71996  1.0000
  C  Sn59      1.0  0.72602  0.52921  0.71654  1.0000
  C  Sn60      1.0  0.72444  0.49532  0.73816  1.0000
  C   C199      1.0  0.74856  0.47443  0.76274  1.0000
  C   C200      1.0  0.77407  0.48685  0.76587  1.0000
  H   H107      1.0  0.79536  0.52988  0.74700  1.0000
  O  Te59      1.0  0.70227  0.55061  0.69185  1.0000
  O  Te60      1.0  0.69912  0.48253  0.73537  1.0000
  H   H108      1.0  0.79264  0.47052  0.78498  1.0000
  Mg  Mg30      1.0  0.67254  0.52151  0.69780  1.0000
  C   C201      1.0  0.77439  0.00828  0.78299  1.0000
  C   C202      1.0  0.75514  0.03765  0.73221  1.0000
  C  Sn61      1.0  0.72533  0.03718  0.69278  1.0000
  C  Sn62      1.0  0.71465  0.00672  0.70460  1.0000
  C   C203      1.0  0.73409  0.97747  0.75566  1.0000
  C   C204      1.0  0.76388  0.97822  0.79475  1.0000
  H   H109      1.0  0.79745  0.00885  0.81334  1.0000
  O  Te61      1.0  0.70640  0.06675  0.64218  1.0000
  O  Te62      1.0  0.68496  0.00554  0.66601  1.0000
  H   H110      1.0  0.77879  0.95547  0.83419  1.0000
  Mg  Mg31      1.0  0.66779  0.05243  0.60291  1.0000
  C   C205      1.0  0.85407  0.78320  0.76977  1.0000
  C   C206      1.0  0.83358  0.76184  0.74128  1.0000
  C  Sn63      1.0  0.83983  0.73347  0.70970  1.0000
  C  Sn64      1.0  0.86713  0.72641  0.70672  1.0000
  C   C207      1.0  0.88749  0.74791  0.73551  1.0000
  C   C208      1.0  0.88100  0.77624  0.76692  1.0000
  H   H111      1.0  0.84906  0.80511  0.79418  1.0000
  O  Te63      1.0  0.81911  0.71241  0.68143  1.0000
  O  Te64      1.0  0.87395  0.69821  0.67554  1.0000
  H   H112      1.0  0.89688  0.79276  0.78910  1.0000
  Mg  Mg32      1.0  0.83856  0.67707  0.64434  1.0000
  C   C209      1.0  0.72843  0.16703  0.82250  1.0000
  C   C210      1.0  0.74991  0.18593  0.80378  1.0000
  C  Sn65      1.0  0.77198  0.17382  0.76936  1.0000
  C  Sn66      1.0  0.77250  0.14220  0.75341  1.0000
  C   C211      1.0  0.75090  0.12350  0.77222  1.0000
  C   C212      1.0  0.72892  0.13585  0.80671  1.0000
  H   H113      1.0  0.71141  0.17660  0.84908  1.0000
  O  Te65      1.0  0.79328  0.19302  0.75110  1.0000
  O  Te66      1.0  0.79431  0.12950  0.71897  1.0000
  H   H114      1.0  0.71229  0.12122  0.82107  1.0000
  Mg  Mg33      1.0  0.81851  0.16498  0.70487  1.0000
  C   C213      1.0  0.75782  0.85896  0.62721  1.0000
  C   C214      1.0  0.74133  0.83602  0.68722  1.0000
  C  Sn67      1.0  0.72131  0.84519  0.74596  1.0000
  C  Sn68      1.0  0.71777  0.87797  0.74437  1.0000
  C   C215      1.0  0.73436  0.90074  0.68394  1.0000
  C   C216      1.0  0.75434  0.89130  0.62553  1.0000
  H   H115      1.0  0.77327  0.85166  0.58191  1.0000
  O  Te67      1.0  0.70501  0.82196  0.80556  1.0000
  O  Te68      1.0  0.69791  0.88780  0.80226  1.0000
  H   H116      1.0  0.76710  0.90907  0.57895  1.0000
  Mg  Mg34      1.0  0.68073  0.84719  0.87133  1.0000
  C   C217      1.0  0.73638  0.35676  0.74553  1.0000
  C   C218      1.0  0.75708  0.33263  0.76048  1.0000
  C  Sn69      1.0  0.78560  0.33853  0.78952  1.0000
  C  Sn70      1.0  0.79348  0.36917  0.80386  1.0000
  C   C219      1.0  0.77261  0.39313  0.78886  1.0000
  C   C220      1.0  0.74413  0.38698  0.75974  1.0000
  H   H117      1.0  0.71435  0.35199  0.72311  1.0000
  O  Te69      1.0  0.80601  0.31416  0.80406  1.0000
  O  Te70      1.0  0.82183  0.37570  0.83295  1.0000
  H   H118      1.0  0.72811  0.40565  0.74830  1.0000
  Mg  Mg35      1.0  0.84188  0.33471  0.84348  1.0000
  C   C221      1.0  0.70658  0.65162  0.77902  1.0000
  C   C222      1.0  0.72352  0.63155  0.74252  1.0000
  C  Sn71      1.0  0.74735  0.64236  0.70934  1.0000
  C  Sn72      1.0  0.75429  0.67386  0.71290  1.0000
  C   C223      1.0  0.73722  0.69375  0.74968  1.0000
  C   C224      1.0  0.71342  0.68269  0.78263  1.0000
  H   H119      1.0  0.68818  0.64306  0.80462  1.0000
  O  Te71      1.0  0.76403  0.62200  0.67303  1.0000
  O  Te72      1.0  0.77798  0.68527  0.68029  1.0000
  H   H120      1.0  0.70032  0.69823  0.81101  1.0000
  Mg  Mg36      1.0  0.79416  0.64851  0.63708  1.0000
