data_image0
_chemical_formula_structural       N10C20H12N10C20H12N10C20H12N10C20H12SnCSn2CSnTe4Mg2SnCSn2CSnTe4Mg2SnCSn2CSnTe4Mg2SnCSn2CSnTe4Mg2SnCSn2CSnTe4Mg2SnCSn2CSnTe4Mg2SnCSn2CSnTe4Mg2SnCSn2CSnTe4Mg2SnCSn2CSnTe4Mg2SnCSn2CSnTe4Mg2SnCSn2CSnTe4Mg2SnCSn2CSnTe4Mg2SnCSn2CSnTe4Mg2SnCSn2CSnTe4Mg2SnCSn2CSnTe4Mg2SnCSn2CSnTe4Mg2SnCSn2CSnTe4Mg2SnCSn2CSnTe4Mg2SnCSn2CSnTe4Mg2SnCSn2CSnTe4Mg2SnCSn2CSnTe4Mg2SnCSn2CSnTe4Mg2SnCSn2CSnTe4Mg2SnCSn2CSnTe4Mg2SnCSn2CSnTe4Mg2SnCSn2CSnTe4Mg2SnCSn2CSnTe4Mg2SnCSn2CSnTe4Mg2SnCSn2CSnTe4Mg2SnCSn2CSnTe4Mg2SnCSn2CSnTe4Mg2SnCSn2CSnTe4Mg2SnCSn2CSnTe4Mg2SnCSn2CSnTe4Mg2SnCSn2CSnTe4Mg2SnCSn2CSnTe4Mg2
_chemical_formula_sum              "N40 C152 H48 Sn144 Te144 Mg72"
_cell_length_a       50.4905
_cell_length_b       43.2101
_cell_length_c       8.12849
_cell_angle_alpha    68.9614
_cell_angle_beta     116.013
_cell_angle_gamma    88.9743

_symmetry_space_group_name_H-M    'P1'
_space_group_IT_number       1

loop_
  _space_group_symop_operation_xyz
  'x, y, z'

loop_
  _atom_site_type_symbol
  _atom_site_label
  _atom_site_symmetry_multiplicity
  _atom_site_fract_x
  _atom_site_fract_y
  _atom_site_fract_z
  _atom_site_occupancy
  N   N1        1.0  0.29291  0.30073  0.29112  1.0000
  N   N2        1.0  0.29658  0.25171  0.25980  1.0000
  N   N3        1.0  0.21442  0.74072  0.25021  1.0000
  N   N4        1.0  0.21157  0.79212  0.25488  1.0000
  N   N5        1.0  0.06852  0.77389  0.24932  1.0000
  N   N6        1.0  0.43417  0.31071  0.24424  1.0000
  N   N7        1.0  0.25157  0.58779  0.22752  1.0000
  N   N8        1.0  0.24860  0.08646  0.24218  1.0000
  N   N9        1.0  0.27303  0.95666  0.26258  1.0000
  N   N10       1.0  0.24869  0.45746  0.23508  1.0000
  C   C1        1.0  0.26557  0.29131  0.25906  1.0000
  C   C2        1.0  0.23920  0.30751  0.24005  1.0000
  C   C3        1.0  0.21605  0.28898  0.20775  1.0000
  C   C4        1.0  0.26861  0.25987  0.24183  1.0000
  C   C5        1.0  0.24494  0.24167  0.21050  1.0000
  C   C6        1.0  0.21885  0.25767  0.19477  1.0000
  C   C7        1.0  0.31056  0.27658  0.28655  1.0000
  C   C8        1.0  0.24093  0.75114  0.26918  1.0000
  C   C9        1.0  0.26655  0.73405  0.28175  1.0000
  C   C10       1.0  0.23993  0.78369  0.27672  1.0000
  C   C11       1.0  0.28914  0.78318  0.31678  1.0000
  C   C12       1.0  0.19760  0.76494  0.24810  1.0000
  C   C13       1.0  0.26381  0.80120  0.29945  1.0000
  C   C14       1.0  0.29038  0.75150  0.30755  1.0000
  C   C15       1.0  0.27189  0.60522  0.21850  1.0000
  C   C16       1.0  0.42337  0.28361  0.28180  1.0000
  C   C17       1.0  0.08652  0.74956  0.26899  1.0000
  C   C18       1.0  0.25953  0.93348  0.32370  1.0000
  C   C19       1.0  0.26222  0.11054  0.19452  1.0000
  C   C20       1.0  0.22889  0.43994  0.25465  1.0000
  H   H1        1.0  0.29959  0.32016  0.32985  1.0000
  H   H2        1.0  0.20426  0.81239  0.27001  1.0000
  H   H3        1.0  0.19466  0.29991  0.18698  1.0000
  H   H4        1.0  0.19960  0.24553  0.16746  1.0000
  H   H5        1.0  0.30910  0.79404  0.34276  1.0000
  H   H6        1.0  0.31119  0.73973  0.32499  1.0000
  H   H7        1.0  0.29016  0.59710  0.19429  1.0000
  H   H8        1.0  0.43568  0.25877  0.31841  1.0000
  H   H9        1.0  0.08208  0.72387  0.29434  1.0000
  H   H10       1.0  0.24520  0.93747  0.38761  1.0000
  H   H11       1.0  0.27895  0.10782  0.14551  1.0000
  H   H12       1.0  0.21129  0.44825  0.28377  1.0000
  N   N11       1.0  0.69324  0.30016  0.27804  1.0000
  N   N12       1.0  0.68996  0.24798  0.28822  1.0000
  N   N13       1.0  0.81076  0.73954  0.23215  1.0000
  N   N14       1.0  0.81444  0.79135  0.22779  1.0000
  N   N15       1.0  0.95635  0.77026  0.23477  1.0000
  N   N16       1.0  0.54722  0.30839  0.26318  1.0000
  N   N17       1.0  0.76389  0.58460  0.25871  1.0000
  N   N18       1.0  0.75597  0.08451  0.27815  1.0000
  N   N19       1.0  0.75331  0.95758  0.23132  1.0000
  N   N20       1.0  0.74463  0.45597  0.26831  1.0000
  C   C21       1.0  0.71923  0.28817  0.28120  1.0000
  C   C22       1.0  0.74351  0.30330  0.27389  1.0000
  C   C23       1.0  0.76524  0.28204  0.27561  1.0000
  C   C24       1.0  0.71644  0.25491  0.28625  1.0000
  C   C25       1.0  0.73853  0.23458  0.28267  1.0000
  C   C26       1.0  0.76289  0.24974  0.27973  1.0000
  C   C27       1.0  0.67644  0.27520  0.28318  1.0000
  C   C28       1.0  0.78598  0.75273  0.23660  1.0000
  C   C29       1.0  0.76126  0.73815  0.24405  1.0000
  C   C30       1.0  0.78821  0.78556  0.23762  1.0000
  C   C31       1.0  0.74327  0.79040  0.25798  1.0000
  C   C32       1.0  0.82756  0.76283  0.22875  1.0000
  C   C33       1.0  0.76734  0.80556  0.24938  1.0000
  C   C34       1.0  0.74050  0.75842  0.25574  1.0000
  C   C35       1.0  0.74561  0.60515  0.26440  1.0000
  C   C36       1.0  0.55986  0.28573  0.23492  1.0000
  C   C37       1.0  0.94111  0.74653  0.23397  1.0000
  C   C38       1.0  0.77658  0.93713  0.27285  1.0000
  C   C39       1.0  0.73495  0.10117  0.28374  1.0000
  C   C40       1.0  0.75881  0.43821  0.22117  1.0000
  H   H13       1.0  0.68681  0.32382  0.26205  1.0000
  H   H14       1.0  0.82269  0.81261  0.22473  1.0000
  H   H15       1.0  0.78509  0.29107  0.27398  1.0000
  H   H16       1.0  0.78088  0.23620  0.27691  1.0000
  H   H17       1.0  0.72671  0.80344  0.27556  1.0000
  H   H18       1.0  0.72161  0.74867  0.27021  1.0000
  H   H19       1.0  0.72506  0.59902  0.27252  1.0000
  H   H20       1.0  0.54927  0.26508  0.20359  1.0000
  H   H21       1.0  0.94881  0.72227  0.23693  1.0000
  H   H22       1.0  0.79929  0.94272  0.32645  1.0000
  H   H23       1.0  0.71497  0.09144  0.28389  1.0000
  H   H24       1.0  0.77457  0.44777  0.16489  1.0000
  N   N21       1.0  0.31124  0.28549  0.79366  1.0000
  N   N22       1.0  0.31299  0.23624  0.76043  1.0000
  N   N23       1.0  0.18714  0.73112  0.75672  1.0000
  N   N24       1.0  0.18445  0.78238  0.76456  1.0000
  N   N25       1.0  0.04212  0.77188  0.75686  1.0000
  N   N26       1.0  0.45250  0.29097  0.75475  1.0000
  N   N27       1.0  0.22936  0.57896  0.69792  1.0000
  N   N28       1.0  0.24114  0.07870  0.71912  1.0000
  N   N29       1.0  0.24549  0.94597  0.75740  1.0000
  N   N30       1.0  0.25256  0.44855  0.72481  1.0000
  C   C41       1.0  0.28349  0.27718  0.76207  1.0000
  C   C42       1.0  0.25795  0.29425  0.74718  1.0000
  C   C43       1.0  0.23396  0.27703  0.71168  1.0000
  C   C44       1.0  0.28511  0.24578  0.74112  1.0000
  C   C45       1.0  0.26046  0.22894  0.70737  1.0000
  C   C46       1.0  0.23518  0.24629  0.69340  1.0000
  C   C47       1.0  0.32821  0.26012  0.79225  1.0000
  C   C48       1.0  0.21228  0.74316  0.75477  1.0000
  C   C49       1.0  0.23697  0.72803  0.74908  1.0000
  C   C50       1.0  0.21101  0.77574  0.76084  1.0000
  C   C51       1.0  0.25769  0.77918  0.76307  1.0000
  C   C52       1.0  0.17114  0.75458  0.76584  1.0000
  C   C53       1.0  0.23300  0.79530  0.76150  1.0000
  C   C54       1.0  0.25931  0.74744  0.75527  1.0000
  C   C55       1.0  0.25035  0.59629  0.73253  1.0000
  C   C56       1.0  0.44125  0.26408  0.78666  1.0000
  C   C57       1.0  0.05740  0.74759  0.75573  1.0000
  C   C58       1.0  0.22208  0.93256  0.70590  1.0000
  C   C59       1.0  0.26360  0.09366  0.73363  1.0000
  C   C60       1.0  0.23497  0.42716  0.72917  1.0000
  H   H25       1.0  0.31978  0.30249  0.85163  1.0000
  H   H26       1.0  0.17950  0.80055  0.80411  1.0000
  H   H27       1.0  0.21304  0.28846  0.69375  1.0000
  H   H28       1.0  0.21506  0.23579  0.66478  1.0000
  H   H29       1.0  0.27567  0.79248  0.76082  1.0000
  H   H30       1.0  0.27876  0.73796  0.74910  1.0000
  H   H31       1.0  0.27345  0.58599  0.77235  1.0000
  H   H32       1.0  0.45247  0.23946  0.81214  1.0000
  H   H33       1.0  0.04941  0.72434  0.74921  1.0000
  H   H34       1.0  0.19909  0.94672  0.64307  1.0000
  H   H35       1.0  0.28508  0.08104  0.76014  1.0000
  H   H36       1.0  0.21341  0.43279  0.72648  1.0000
  N   N31       1.0  0.71250  0.28760  0.80508  1.0000
  N   N32       1.0  0.70732  0.23796  0.77741  1.0000
  N   N33       1.0  0.78675  0.73011  0.75339  1.0000
  N   N34       1.0  0.78770  0.78220  0.74816  1.0000
  N   N35       1.0  0.92937  0.77308  0.73785  1.0000
  N   N36       1.0  0.56507  0.29243  0.76875  1.0000
  N   N37       1.0  0.74655  0.57744  0.72009  1.0000
  N   N38       1.0  0.75889  0.07347  0.74189  1.0000
  N   N39       1.0  0.72749  0.94915  0.73485  1.0000
  N   N40       1.0  0.74817  0.44570  0.74417  1.0000
  C   C61       1.0  0.73818  0.27621  0.80154  1.0000
  C   C62       1.0  0.76244  0.29158  0.79727  1.0000
  C   C63       1.0  0.78411  0.27120  0.79296  1.0000
  C   C64       1.0  0.73454  0.24445  0.78706  1.0000
  C   C65       1.0  0.75702  0.22419  0.78639  1.0000
  C   C66       1.0  0.78184  0.23907  0.79169  1.0000
  C   C67       1.0  0.69508  0.26315  0.79510  1.0000
  C   C68       1.0  0.76022  0.74271  0.74095  1.0000
  C   C69       1.0  0.73512  0.72752  0.73279  1.0000
  C   C70       1.0  0.76026  0.77617  0.73510  1.0000
  C   C71       1.0  0.71200  0.78084  0.71102  1.0000
  C   C72       1.0  0.80264  0.75430  0.75513  1.0000
  C   C73       1.0  0.73631  0.79674  0.71729  1.0000
  C   C74       1.0  0.71153  0.74802  0.71858  1.0000
  C   C75       1.0  0.72901  0.59267  0.75843  1.0000
  C   C76       1.0  0.57744  0.27154  0.72858  1.0000
  C   C77       1.0  0.91278  0.75096  0.71125  1.0000
  C   C78       1.0  0.74058  0.93250  0.67680  1.0000
  C   C79       1.0  0.74539  0.09137  0.79195  1.0000
  C   C80       1.0  0.76911  0.42819  0.74272  1.0000
  H   H37       1.0  0.71241  0.30297  0.87471  1.0000
  H   H38       1.0  0.79543  0.80344  0.75299  1.0000
  H   H39       1.0  0.80355  0.28095  0.78796  1.0000
  H   H40       1.0  0.80013  0.22523  0.79280  1.0000
  H   H41       1.0  0.69226  0.79496  0.69405  1.0000
  H   H42       1.0  0.69140  0.73833  0.70852  1.0000
  H   H43       1.0  0.71299  0.58060  0.80501  1.0000
  H   H44       1.0  0.56615  0.25256  0.67918  1.0000
  H   H45       1.0  0.91854  0.72996  0.67849  1.0000
  H   H46       1.0  0.75567  0.94343  0.61741  1.0000
  H   H47       1.0  0.72863  0.08222  0.83931  1.0000
  H   H48       1.0  0.78899  0.43744  0.73726  1.0000
  C  Sn1       1.0  0.35247  0.31541  0.21791  1.0000
  C   C81       1.0  0.33775  0.28824  0.23160  1.0000
  C  Sn2       1.0  0.35312  0.25575  0.29116  1.0000
  C  Sn3       1.0  0.38386  0.25029  0.33815  1.0000
  C   C82       1.0  0.39856  0.27745  0.32450  1.0000
  C  Sn4       1.0  0.38321  0.30995  0.26491  1.0000
  O  Te1       1.0  0.33666  0.34768  0.15806  1.0000
  O  Te2       1.0  0.33792  0.22899  0.30366  1.0000
  O  Te3       1.0  0.39966  0.21799  0.39804  1.0000
  O  Te4       1.0  0.39839  0.33670  0.25243  1.0000
  Mg  Mg1       1.0  0.36916  0.18967  0.39240  1.0000
  Mg  Mg2       1.0  0.36719  0.37602  0.16382  1.0000
  C  Sn5       1.0  0.27549  0.53125  0.19716  1.0000
  C   C83       1.0  0.25368  0.55524  0.17332  1.0000
  C  Sn6       1.0  0.22856  0.54584  0.19325  1.0000
  C  Sn7       1.0  0.22518  0.51174  0.23808  1.0000
  C   C84       1.0  0.24698  0.48776  0.26194  1.0000
  C  Sn8       1.0  0.27211  0.49714  0.24199  1.0000
  O  Te5       1.0  0.30042  0.54121  0.17658  1.0000
  O  Te6       1.0  0.20705  0.57029  0.16867  1.0000
  O  Te7       1.0  0.20022  0.50179  0.25865  1.0000
  O  Te8       1.0  0.29361  0.47272  0.26658  1.0000
  Mg  Mg3       1.0  0.17704  0.54432  0.21148  1.0000
  Mg  Mg4       1.0  0.32364  0.49866  0.22392  1.0000
  C  Sn9       1.0  0.28283  0.03887  0.20554  1.0000
  C   C85       1.0  0.25771  0.05567  0.19350  1.0000
  C  Sn10      1.0  0.23659  0.03789  0.22912  1.0000
  C  Sn11      1.0  0.24068  0.00257  0.27792  1.0000
  C   C86       1.0  0.26579  0.98578  0.28998  1.0000
  C  Sn12      1.0  0.28692  0.00354  0.25435  1.0000
  O  Te9       1.0  0.30365  0.05715  0.16936  1.0000
  O  Te10      1.0  0.21165  0.05524  0.21613  1.0000
  O  Te11      1.0  0.21983  0.98429  0.31411  1.0000
  O  Te12      1.0  0.31185  0.98621  0.26735  1.0000
  Mg  Mg5       1.0  0.18953  0.01922  0.27851  1.0000
  Mg  Mg6       1.0  0.33399  0.02220  0.20510  1.0000
  C  Sn13      1.0  0.14299  0.72293  0.33214  1.0000
  C   C87       1.0  0.12218  0.74663  0.31936  1.0000
  C  Sn14      1.0  0.12321  0.78099  0.25170  1.0000
  C  Sn15      1.0  0.14550  0.79190  0.19550  1.0000
  C   C88       1.0  0.16629  0.76821  0.20825  1.0000
  C  Sn16      1.0  0.16528  0.73384  0.27594  1.0000
  O  Te13      1.0  0.14154  0.68871  0.40019  1.0000
  O  Te14      1.0  0.10218  0.80421  0.24028  1.0000
  O  Te15      1.0  0.14693  0.82615  0.12741  1.0000
  O  Te16      1.0  0.18629  0.71062  0.28733  1.0000
  Mg  Mg7       1.0  0.11333  0.84810  0.13822  1.0000
  Mg  Mg8       1.0  0.17515  0.66674  0.38927  1.0000
  C  Sn17      1.0  0.26742  0.19577  0.10061  1.0000
  C   C89       1.0  0.24676  0.20939  0.14063  1.0000
  C  Sn18      1.0  0.23152  0.18850  0.22767  1.0000
  C  Sn19      1.0  0.23705  0.15326  0.27585  1.0000
  C   C90       1.0  0.25770  0.13965  0.23586  1.0000
  C  Sn20      1.0  0.27295  0.16052  0.14878  1.0000
  O  Te17      1.0  0.28240  0.21712  0.01352  1.0000
  O  Te18      1.0  0.21097  0.20271  0.26621  1.0000
  O  Te19      1.0  0.22205  0.13190  0.36299  1.0000
  O  Te20      1.0  0.29349  0.14633  0.11028  1.0000
  Mg  Mg9       1.0  0.19617  0.16320  0.38666  1.0000
  Mg  Mg10      1.0  0.37998  0.11678  0.98994  1.0000
  C  Sn21      1.0  0.29018  0.85886  0.31682  1.0000
  C   C91       1.0  0.27268  0.83541  0.35533  1.0000
  C  Sn22      1.0  0.24649  0.84537  0.35840  1.0000
  C  Sn23      1.0  0.23758  0.87950  0.32209  1.0000
  C   C92       1.0  0.25508  0.90294  0.28357  1.0000
  C  Sn24      1.0  0.28128  0.89300  0.28051  1.0000
  O  Te21      1.0  0.31628  0.84834  0.31447  1.0000
  O  Te22      1.0  0.22936  0.82146  0.39731  1.0000
  O  Te23      1.0  0.21146  0.89001  0.32447  1.0000
  O  Te24      1.0  0.29839  0.91689  0.24159  1.0000
  Mg  Mg11      1.0  0.19564  0.84808  0.38443  1.0000
  Mg  Mg12      1.0  0.33210  0.89030  0.25434  1.0000
  C  Sn25      1.0  0.26126  0.36650  0.25673  1.0000
  C   C93       1.0  0.24350  0.34260  0.28137  1.0000
  C  Sn26      1.0  0.21636  0.35155  0.27653  1.0000
  C  Sn27      1.0  0.20676  0.38510  0.24630  1.0000
  C   C94       1.0  0.22451  0.40898  0.22164  1.0000
  C  Sn28      1.0  0.25166  0.40005  0.22650  1.0000
  O  Te25      1.0  0.28830  0.35700  0.26210  1.0000
  O  Te26      1.0  0.19900  0.32720  0.30160  1.0000
  O  Te27      1.0  0.17969  0.39459  0.24095  1.0000
  O  Te28      1.0  0.26901  0.42438  0.20141  1.0000
  Mg  Mg13      1.0  0.16390  0.35241  0.28246  1.0000
  Mg  Mg14      1.0  0.30411  0.39920  0.22042  1.0000
  C  Sn29      1.0  0.28893  0.68595  0.18310  1.0000
  C   C95       1.0  0.26785  0.70211  0.20984  1.0000
  C  Sn30      1.0  0.24887  0.68414  0.27249  1.0000
  C  Sn31      1.0  0.25102  0.64929  0.30930  1.0000
  C   C96       1.0  0.27209  0.63315  0.28260  1.0000
  C  Sn32      1.0  0.29108  0.65110  0.21992  1.0000
  O  Te29      1.0  0.30768  0.70441  0.12038  1.0000
  O  Te30      1.0  0.22796  0.70085  0.29811  1.0000
  O  Te31      1.0  0.23225  0.63083  0.37206  1.0000
  O  Te32      1.0  0.31198  0.63441  0.19433  1.0000
  Mg  Mg15      1.0  0.20740  0.66482  0.38579  1.0000
  Mg  Mg16      1.0  0.33256  0.67041  0.10676  1.0000
  C  Sn33      1.0  0.48030  0.34158  0.21891  1.0000
  C   C97       1.0  0.46115  0.31892  0.18850  1.0000
  C  Sn34      1.0  0.47189  0.28717  0.20720  1.0000
  C  Sn35      1.0  0.50242  0.27786  0.25747  1.0000
  C   C98       1.0  0.52155  0.30051  0.28789  1.0000
  C  Sn36      1.0  0.51083  0.33228  0.26918  1.0000
  O  Te33      1.0  0.46908  0.37319  0.19944  1.0000
  O  Te34      1.0  0.45232  0.26494  0.17601  1.0000
  O  Te35      1.0  0.51363  0.24622  0.27692  1.0000
  O  Te36      1.0  0.53038  0.35449  0.30038  1.0000
  Mg  Mg17      1.0  0.47820  0.22473  0.21986  1.0000
  Mg  Mg18      1.0  0.50453  0.39470  0.25667  1.0000
  C  Sn37      1.0  0.00066  0.80214  0.20580  1.0000
  C   C99       1.0  0.98362  0.77726  0.18803  1.0000
  C  Sn38      1.0  0.99665  0.74562  0.21776  1.0000
  C  Sn39      1.0  0.02736  0.73870  0.26639  1.0000
  C   C100      1.0  0.04439  0.76357  0.28417  1.0000
  C  Sn40      1.0  0.03138  0.79522  0.25443  1.0000
  O  Te37      1.0  0.98717  0.83359  0.17545  1.0000
  O  Te38      1.0  0.97915  0.72116  0.19911  1.0000
  O  Te39      1.0  0.04085  0.70722  0.29674  1.0000
  O  Te40      1.0  0.04886  0.81967  0.27309  1.0000
  Mg  Mg19      1.0  0.00771  0.68215  0.25473  1.0000
  Mg  Mg20      1.0  0.02032  0.85868  0.21761  1.0000
  C  Sn41      1.0  0.63307  0.30322  0.35619  1.0000
  C   C101      1.0  0.64812  0.27866  0.33487  1.0000
  C  Sn42      1.0  0.63240  0.25762  0.24793  1.0000
  C  Sn43      1.0  0.60097  0.26122  0.18077  1.0000
  C   C102      1.0  0.58592  0.28577  0.20206  1.0000
  C  Sn44      1.0  0.60163  0.30682  0.28903  1.0000
  O  Te41      1.0  0.64924  0.32398  0.44353  1.0000
  O  Te42      1.0  0.64795  0.23324  0.22830  1.0000
  O  Te43      1.0  0.58480  0.24043  0.09338  1.0000
  O  Te44      1.0  0.58610  0.33118  0.30864  1.0000
  Mg  Mg21      1.0  0.61600  0.21099  0.09945  1.0000
  Mg  Mg22      1.0  0.61802  0.35346  0.43736  1.0000
  C  Sn45      1.0  0.73337  0.53064  0.31578  1.0000
  C   C103      1.0  0.75670  0.54710  0.30927  1.0000
  C  Sn46      1.0  0.77674  0.53515  0.25909  1.0000
  C  Sn47      1.0  0.77338  0.50615  0.21434  1.0000
  C   C104      1.0  0.75007  0.48971  0.22083  1.0000
  C  Sn48      1.0  0.73002  0.50164  0.27104  1.0000
  O  Te45      1.0  0.71360  0.54303  0.36631  1.0000
  O  Te46      1.0  0.79988  0.55203  0.25363  1.0000
  O  Te47      1.0  0.79318  0.49377  0.16379  1.0000
  O  Te48      1.0  0.70689  0.48478  0.27647  1.0000
  Mg  Mg23      1.0  0.82111  0.52547  0.17654  1.0000
  Mg  Mg24      1.0  0.68564  0.51133  0.35344  1.0000
  C  Sn49      1.0  0.78481  0.00896  0.30046  1.0000
  C   C105      1.0  0.76389  0.98815  0.29794  1.0000
  C  Sn50      1.0  0.73550  0.00076  0.26457  1.0000
  C  Sn51      1.0  0.72783  0.03490  0.23292  1.0000
  C   C106      1.0  0.74874  0.05570  0.23541  1.0000
  C  Sn52      1.0  0.77715  0.04310  0.26881  1.0000
  O  Te49      1.0  0.81307  0.99582  0.33410  1.0000
  O  Te50      1.0  0.69965  0.97946  0.26280  1.0000
  O  Te51      1.0  0.69955  0.04804  0.19927  1.0000
  O  Te52      1.0  0.79767  0.06438  0.27056  1.0000
  Mg  Mg25      1.0  0.67930  0.00909  0.21065  1.0000
  Mg  Mg26      1.0  0.83333  0.03479  0.32258  1.0000
  C  Sn53      1.0  0.87516  0.79034  0.17285  1.0000
  C   C107      1.0  0.85585  0.76762  0.17590  1.0000
  C  Sn54      1.0  0.86594  0.73356  0.22615  1.0000
  C  Sn55      1.0  0.89596  0.72196  0.27449  1.0000
  C   C108      1.0  0.91525  0.74468  0.27146  1.0000
  C  Sn56      1.0  0.90518  0.77875  0.22119  1.0000
  O  Te53      1.0  0.86459  0.82428  0.12219  1.0000
  O  Te54      1.0  0.84622  0.71132  0.22810  1.0000
  O  Te55      1.0  0.90651  0.68799  0.32517  1.0000
  O  Te56      1.0  0.92488  0.80098  0.21925  1.0000
  Mg  Mg27      1.0  0.87114  0.66747  0.30688  1.0000
  Mg  Mg28      1.0  0.89999  0.84483  0.14060  1.0000
  C  Sn57      1.0  0.76645  0.15315  0.33956  1.0000
  C   C109      1.0  0.74406  0.13451  0.33773  1.0000
  C  Sn58      1.0  0.71554  0.15043  0.28626  1.0000
  C  Sn59      1.0  0.70925  0.18572  0.23544  1.0000
  C   C110      1.0  0.73163  0.20433  0.23725  1.0000
  C  Sn60      1.0  0.76016  0.18843  0.28874  1.0000
  O  Te57      1.0  0.79480  0.13671  0.39148  1.0000
  O  Te58      1.0  0.69352  0.13127  0.28557  1.0000
  O  Te59      1.0  0.68088  0.20215  0.18351  1.0000
  O  Te60      1.0  0.78217  0.20758  0.28941  1.0000
  Mg  Mg29      1.0  0.65834  0.16516  0.20429  1.0000
  Mg  Mg30      1.0  0.81735  0.17372  0.37056  1.0000
  C  Sn61      1.0  0.74184  0.87426  0.12100  1.0000
  C   C111      1.0  0.76524  0.84710  0.19535  1.0000
  C  Sn62      1.0  0.79481  0.84708  0.32390  1.0000
  C  Sn63      1.0  0.80112  0.87477  0.37942  1.0000
  C   C112      1.0  0.77773  0.90190  0.30512  1.0000
  C  Sn64      1.0  0.74815  0.90195  0.17652  1.0000
  O  Te61      1.0  0.78412  0.80472  0.99269  1.0000
  O  Te62      1.0  0.81783  0.81965  0.39625  1.0000
  O  Te63      1.0  0.83054  0.87526  0.50784  1.0000
  O  Te64      1.0  0.72514  0.92936  0.10423  1.0000
  Mg  Mg31      1.0  0.85420  0.83203  0.56708  1.0000
  Mg  Mg32      1.0  0.76042  0.84796  0.93348  1.0000
  C  Sn65      1.0  0.76592  0.38224  0.13780  1.0000
  C   C113      1.0  0.75244  0.40356  0.18704  1.0000
  C  Sn66      1.0  0.73742  0.39084  0.29811  1.0000
  C  Sn67      1.0  0.73586  0.35608  0.36141  1.0000
  C   C114      1.0  0.74934  0.33478  0.31221  1.0000
  C  Sn68      1.0  0.76436  0.34749  0.20110  1.0000
  O  Te65      1.0  0.78082  0.39551  0.02665  1.0000
  O  Te66      1.0  0.72411  0.41264  0.34545  1.0000
  O  Te67      1.0  0.72094  0.34283  0.47264  1.0000
  O  Te68      1.0  0.77767  0.32570  0.15379  1.0000
  Mg  Mg33      1.0  0.70638  0.38261  0.49994  1.0000
  Mg  Mg34      1.0  0.86708  0.28666  0.99941  1.0000
  C  Sn69      1.0  0.78278  0.65319  0.31433  1.0000
  C   C115      1.0  0.75851  0.63777  0.30954  1.0000
  C  Sn70      1.0  0.73099  0.65707  0.25166  1.0000
  C  Sn71      1.0  0.72764  0.69254  0.19730  1.0000
  C   C116      1.0  0.75190  0.70795  0.20207  1.0000
  C  Sn72      1.0  0.77943  0.68866  0.25997  1.0000
  O  Te69      1.0  0.81008  0.63340  0.37266  1.0000
  O  Te70      1.0  0.70706  0.64108  0.24812  1.0000
  O  Te71      1.0  0.70031  0.71233  0.13895  1.0000
  O  Te72      1.0  0.80335  0.70464  0.26349  1.0000
  Mg  Mg35      1.0  0.67432  0.67889  0.15798  1.0000
  Mg  Mg36      1.0  0.83609  0.66685  0.35350  1.0000
  C  Sn73      1.0  0.38338  0.22758  0.86542  1.0000
  C   C117      1.0  0.36502  0.25302  0.85926  1.0000
  C  Sn74      1.0  0.36956  0.28621  0.80412  1.0000
  C  Sn75      1.0  0.39292  0.29416  0.75396  1.0000
  C   C118      1.0  0.41126  0.26874  0.76010  1.0000
  C  Sn76      1.0  0.40675  0.23553  0.81526  1.0000
  O  Te73      1.0  0.37844  0.19457  0.92096  1.0000
  O  Te74      1.0  0.35092  0.31121  0.79913  1.0000
  O  Te75      1.0  0.39786  0.32721  0.69840  1.0000
  O  Te76      1.0  0.42536  0.21055  0.82023  1.0000
  Mg  Mg37      1.0  0.36655  0.35244  0.71398  1.0000
  Mg  Mg38      1.0  0.40975  0.16931  0.90525  1.0000
  C  Sn77      1.0  0.22205  0.51351  0.80169  1.0000
  C   C119      1.0  0.23739  0.53921  0.75708  1.0000
  C  Sn78      1.0  0.25586  0.53669  0.67332  1.0000
  C  Sn79      1.0  0.25904  0.50789  0.63319  1.0000
  C   C120      1.0  0.24370  0.48221  0.67775  1.0000
  C  Sn80      1.0  0.22523  0.48471  0.76155  1.0000
  O  Te77      1.0  0.20370  0.51656  0.88536  1.0000
  O  Te78      1.0  0.27097  0.56271  0.63009  1.0000
  O  Te79      1.0  0.27740  0.50485  0.54945  1.0000
  O  Te80      1.0  0.21012  0.45872  0.80475  1.0000
  Mg  Mg39      1.0  0.29335  0.54693  0.51697  1.0000
  Mg  Mg40      1.0  0.18772  0.47447  0.91776  1.0000
  C  Sn81      1.0  0.22512  0.01744  0.82392  1.0000
  C   C121      1.0  0.24418  0.03859  0.78492  1.0000
  C  Sn82      1.0  0.26195  0.03083  0.70739  1.0000
  C  Sn83      1.0  0.26062  0.00132  0.66788  1.0000
  C   C122      1.0  0.24156  0.98019  0.70684  1.0000
  C  Sn84      1.0  0.22379  0.98793  0.78441  1.0000
  O  Te81      1.0  0.20756  0.02569  0.90142  1.0000
  O  Te82      1.0  0.28084  0.05235  0.66969  1.0000
  O  Te83      1.0  0.27820  0.99307  0.59032  1.0000
  O  Te84      1.0  0.20491  0.96643  0.82207  1.0000
  Mg  Mg41      1.0  0.30039  0.03031  0.56391  1.0000
  Mg  Mg42      1.0  0.18533  0.98845  0.92775  1.0000
  C  Sn85      1.0  0.10046  0.78527  0.70641  1.0000
  C   C123      1.0  0.08542  0.75840  0.70890  1.0000
  C  Sn86      1.0  0.10058  0.72634  0.75940  1.0000
  C  Sn87      1.0  0.13141  0.72102  0.80856  1.0000
  C   C124      1.0  0.14643  0.74788  0.80609  1.0000
  C  Sn88      1.0  0.13129  0.77995  0.75557  1.0000
  O  Te85      1.0  0.08486  0.81711  0.65549  1.0000
  O  Te86      1.0  0.08507  0.69987  0.76079  1.0000
  O  Te87      1.0  0.14700  0.68915  0.85951  1.0000
  O  Te88      1.0  0.14679  0.80641  0.75421  1.0000
  Mg  Mg43      1.0  0.11610  0.66111  0.84022  1.0000
  Mg  Mg44      1.0  0.11578  0.84518  0.67491  1.0000
  C  Sn89      1.0  0.23915  0.16795  0.75873  1.0000
  C   C125      1.0  0.26040  0.18806  0.75418  1.0000
  C  Sn90      1.0  0.28245  0.17972  0.70847  1.0000
  C  Sn91      1.0  0.28326  0.15069  0.66630  1.0000
  C   C126      1.0  0.26201  0.13061  0.67083  1.0000
  C  Sn92      1.0  0.23996  0.13892  0.71656  1.0000
  O  Te89      1.0  0.21731  0.17676  0.80477  1.0000
  O  Te90      1.0  0.30346  0.20021  0.70490  1.0000
  O  Te91      1.0  0.30513  0.14189  0.62024  1.0000
  O  Te92      1.0  0.21895  0.11846  0.72010  1.0000
  Mg  Mg45      1.0  0.32884  0.17774  0.63405  1.0000
  Mg  Mg46      1.0  0.19356  0.14092  0.79083  1.0000
  C  Sn93      1.0  0.25596  0.87250  0.76510  1.0000
  C   C127      1.0  0.22973  0.89659  0.68158  1.0000
  C  Sn94      1.0  0.20226  0.88665  0.64661  1.0000
  C  Sn95      1.0  0.20099  0.85190  0.69627  1.0000
  C   C128      1.0  0.22722  0.82784  0.77976  1.0000
  C  Sn96      1.0  0.25469  0.83776  0.81475  1.0000
  O  Te93      1.0  0.28317  0.88301  0.79877  1.0000
  O  Te94      1.0  0.17634  0.91119  0.56291  1.0000
  O  Te95      1.0  0.17375  0.84141  0.66252  1.0000
  O  Te96      1.0  0.28061  0.81324  0.89843  1.0000
  Mg  Mg47      1.0  0.14461  0.88433  0.54557  1.0000
  Mg  Mg48      1.0  0.31235  0.84007  0.91593  1.0000
  C  Sn97      1.0  0.27892  0.35397  0.78898  1.0000
  C   C129      1.0  0.26208  0.32876  0.80399  1.0000
  C  Sn98      1.0  0.23297  0.33630  0.77574  1.0000
  C  Sn99      1.0  0.22043  0.36973  0.73144  1.0000
  C   C130      1.0  0.23726  0.39492  0.71641  1.0000
  C  Sn100     1.0  0.26637  0.38741  0.74468  1.0000
  O  Te97      1.0  0.30797  0.34587  0.81779  1.0000
  O  Te98      1.0  0.21658  0.31067  0.79157  1.0000
  O  Te99      1.0  0.19136  0.37782  0.70264  1.0000
  O  Te100     1.0  0.28276  0.41302  0.72883  1.0000
  Mg  Mg49      1.0  0.17792  0.33422  0.73957  1.0000
  Mg  Mg50      1.0  0.32141  0.38950  0.78070  1.0000
  C  Sn101     1.0  0.21291  0.65593  0.65258  1.0000
  C   C131      1.0  0.23739  0.63765  0.66557  1.0000
  C  Sn102     1.0  0.26547  0.64659  0.73348  1.0000
  C  Sn103     1.0  0.26918  0.67437  0.78970  1.0000
  C   C132      1.0  0.24472  0.69263  0.77673  1.0000
  C  Sn104     1.0  0.21662  0.68371  0.70880  1.0000
  O  Te101     1.0  0.18504  0.64654  0.58429  1.0000
  O  Te102     1.0  0.28961  0.62794  0.74511  1.0000
  O  Te103     1.0  0.29709  0.68375  0.85803  1.0000
  O  Te104     1.0  0.19250  0.70234  0.69719  1.0000
  Mg  Mg51      1.0  0.32314  0.65054  0.84746  1.0000
  Mg  Mg52      1.0  0.15895  0.67975  0.59497  1.0000
  C  Sn105     1.0  0.51183  0.26654  0.67655  1.0000
  C   C133      1.0  0.53004  0.29015  0.70400  1.0000
  C  Sn106     1.0  0.52438  0.31340  0.77363  1.0000
  C  Sn107     1.0  0.50003  0.31304  0.81685  1.0000
  C   C134      1.0  0.48184  0.28943  0.78944  1.0000
  C  Sn108     1.0  0.48748  0.26617  0.71977  1.0000
  O  Te105     1.0  0.51791  0.24353  0.60681  1.0000
  O  Te106     1.0  0.54289  0.33677  0.79982  1.0000
  O  Te107     1.0  0.49396  0.33607  0.88664  1.0000
  O  Te108     1.0  0.46899  0.24281  0.69361  1.0000
  Mg  Mg53      1.0  0.52555  0.36298  0.89829  1.0000
  Mg  Mg54      1.0  0.48632  0.21658  0.59526  1.0000
  C  Sn109     1.0  0.99782  0.79464  0.81592  1.0000
  C   C135      1.0  0.01443  0.77034  0.80223  1.0000
  C  Sn110     1.0  0.00073  0.74661  0.73236  1.0000
  C  Sn111     1.0  0.96977  0.74720  0.67485  1.0000
  C   C136      1.0  0.95317  0.77149  0.68851  1.0000
  C  Sn112     1.0  0.96686  0.79523  0.75840  1.0000
  O  Te109     1.0  0.01198  0.81812  0.88617  1.0000
  O  Te110     1.0  0.01780  0.72255  0.72007  1.0000
  O  Te111     1.0  0.95561  0.72369  0.60455  1.0000
  O  Te112     1.0  0.94980  0.81929  0.77067  1.0000
  Mg  Mg55      1.0  0.98836  0.69590  0.61492  1.0000
  Mg  Mg56      1.0  0.97922  0.84596  0.87570  1.0000
  C  Sn113     1.0  0.63949  0.24545  0.68382  1.0000
  C   C137      1.0  0.65963  0.26647  0.73230  1.0000
  C  Sn114     1.0  0.65477  0.28866  0.81061  1.0000
  C  Sn115     1.0  0.62925  0.28984  0.84123  1.0000
  C   C138      1.0  0.60914  0.26882  0.79280  1.0000
  C  Sn116     1.0  0.61398  0.24663  0.71444  1.0000
  O  Te113     1.0  0.64480  0.22346  0.60572  1.0000
  O  Te114     1.0  0.67521  0.30944  0.85787  1.0000
  O  Te115     1.0  0.62396  0.31185  0.91940  1.0000
  O  Te116     1.0  0.59356  0.22585  0.66723  1.0000
  Mg  Mg57      1.0  0.65825  0.33514  0.96054  1.0000
  Mg  Mg58      1.0  0.61050  0.20014  0.56465  1.0000
  C  Sn117     1.0  0.72493  0.51646  0.78971  1.0000
  C   C139      1.0  0.74532  0.53772  0.78340  1.0000
  C  Sn118     1.0  0.76774  0.53051  0.73796  1.0000
  C  Sn119     1.0  0.76981  0.50147  0.69786  1.0000
  C   C140      1.0  0.74942  0.48023  0.70415  1.0000
  C  Sn120     1.0  0.72700  0.48741  0.74962  1.0000
  O  Te117     1.0  0.70269  0.52415  0.83546  1.0000
  O  Te118     1.0  0.78787  0.55214  0.73261  1.0000
  O  Te119     1.0  0.79206  0.49379  0.65210  1.0000
  O  Te120     1.0  0.70687  0.46581  0.75494  1.0000
  Mg  Mg59      1.0  0.81423  0.53094  0.66299  1.0000
  Mg  Mg60      1.0  0.68049  0.48699  0.82444  1.0000
  C  Sn121     1.0  0.78624  0.98864  0.83454  1.0000
  C   C141      1.0  0.75892  0.97830  0.79975  1.0000
  C  Sn122     1.0  0.73229  0.00219  0.70919  1.0000
  C  Sn123     1.0  0.73298  0.03715  0.65209  1.0000
  C   C142      1.0  0.76029  0.04748  0.68684  1.0000
  C  Sn124     1.0  0.78693  0.02360  0.77743  1.0000
  O  Te121     1.0  0.81257  0.96432  0.92527  1.0000
  O  Te122     1.0  0.70526  0.99123  0.67602  1.0000
  O  Te123     1.0  0.70661  0.06148  0.56129  1.0000
  O  Te124     1.0  0.81395  0.03454  0.81057  1.0000
  Mg  Mg61      1.0  0.67535  0.03403  0.54758  1.0000
  Mg  Mg62      1.0  0.84386  0.99178  0.93890  1.0000
  C  Sn125     1.0  0.85245  0.71921  0.77685  1.0000
  C   C143      1.0  0.83804  0.74383  0.80142  1.0000
  C  Sn126     1.0  0.84585  0.77551  0.76932  1.0000
  C  Sn127     1.0  0.86853  0.78275  0.71132  1.0000
  C   C144      1.0  0.88292  0.75815  0.68674  1.0000
  C  Sn128     1.0  0.87513  0.72645  0.71885  1.0000
  O  Te125     1.0  0.84428  0.68771  0.80974  1.0000
  O  Te126     1.0  0.83114  0.79971  0.79488  1.0000
  O  Te127     1.0  0.87670  0.81429  0.67844  1.0000
  O  Te128     1.0  0.88983  0.70226  0.69328  1.0000
  Mg  Mg63      1.0  0.85017  0.83891  0.73236  1.0000
  Mg  Mg64      1.0  0.87080  0.66306  0.75566  1.0000
  C  Sn129     1.0  0.78069  0.14281  0.81322  1.0000
  C   C145      1.0  0.75977  0.12376  0.84131  1.0000
  C  Sn130     1.0  0.73360  0.13914  0.82448  1.0000
  C  Sn131     1.0  0.72821  0.17432  0.77849  1.0000
  C   C146      1.0  0.74912  0.19335  0.75039  1.0000
  C  Sn132     1.0  0.77530  0.17798  0.76722  1.0000
  O  Te129     1.0  0.80669  0.12690  0.83075  1.0000
  O  Te130     1.0  0.71303  0.11957  0.85328  1.0000
  O  Te131     1.0  0.70218  0.19022  0.76097  1.0000
  O  Te132     1.0  0.79586  0.19754  0.73841  1.0000
  Mg  Mg65      1.0  0.68091  0.15281  0.81348  1.0000
  Mg  Mg66      1.0  0.82798  0.16433  0.77808  1.0000
  C  Sn133     1.0  0.76327  0.85363  0.69475  1.0000
  C   C147      1.0  0.74427  0.83257  0.73564  1.0000
  C  Sn134     1.0  0.71917  0.84546  0.74039  1.0000
  C  Sn135     1.0  0.71292  0.88014  0.70337  1.0000
  C   C148      1.0  0.73191  0.90119  0.66247  1.0000
  C  Sn136     1.0  0.75702  0.88831  0.65773  1.0000
  O  Te133     1.0  0.78824  0.84019  0.69075  1.0000
  O  Te134     1.0  0.70051  0.82391  0.78167  1.0000
  O  Te135     1.0  0.68793  0.89357  0.70741  1.0000
  O  Te136     1.0  0.77567  0.90984  0.61644  1.0000
  Mg  Mg67      1.0  0.66922  0.85410  0.77038  1.0000
  Mg  Mg68      1.0  0.80696  0.87968  0.62760  1.0000
  C  Sn137     1.0  0.73519  0.35987  0.68289  1.0000
  C   C149      1.0  0.75736  0.33483  0.71882  1.0000
  C  Sn138     1.0  0.78758  0.33740  0.80033  1.0000
  C  Sn139     1.0  0.79581  0.36558  0.84702  1.0000
  C   C150      1.0  0.77365  0.39061  0.81113  1.0000
  C  Sn140     1.0  0.74342  0.38806  0.72959  1.0000
  O  Te137     1.0  0.70512  0.35678  0.60133  1.0000
  O  Te138     1.0  0.80934  0.31204  0.83484  1.0000
  O  Te139     1.0  0.82591  0.36866  0.92864  1.0000
  O  Te140     1.0  0.72166  0.41339  0.69511  1.0000
  Mg  Mg69      1.0  0.84732  0.32760  0.94834  1.0000
  Mg  Mg70      1.0  0.68368  0.39785  0.58172  1.0000
  C  Sn141     1.0  0.74992  0.67271  0.65069  1.0000
  C   C151      1.0  0.73176  0.69298  0.67844  1.0000
  C  Sn142     1.0  0.71339  0.67892  0.76083  1.0000
  C  Sn143     1.0  0.71317  0.64386  0.81677  1.0000
  C   C152      1.0  0.73133  0.62362  0.78905  1.0000
  C  Sn144     1.0  0.74971  0.63766  0.70663  1.0000
  O  Te141     1.0  0.76812  0.68731  0.56807  1.0000
  O  Te142     1.0  0.69542  0.69969  0.78706  1.0000
  O  Te143     1.0  0.69496  0.62927  0.89944  1.0000
  O  Te144     1.0  0.76767  0.61690  0.68043  1.0000
  Mg  Mg71      1.0  0.67448  0.66801  0.90571  1.0000
  Mg  Mg72      1.0  0.78863  0.64856  0.56190  1.0000
