data_image0
_chemical_formula_structural       N10C41H26N10C47H30N10C47H30N10C53H34C2Sn2C2HTe2HMgC2Sn2C2HTe2HMgC2Sn2C2HTe2HMgC2Sn2C2HTe2HMgC2Sn2C2HTe2HMgC2Sn2C2HTe2HMgC2Sn2C2HTe2HMgC2Sn2C2HTe2HMgC2Sn2C2HTe2HMgC2Sn2C2HTe2HMgC2Sn2C2HTe2HMgC2Sn2C2HTe2HMgC2Sn2C2HTe2HMgC2Sn2C2HTe2HMgC2Sn2C2HTe2HMgC2Sn2C2HTe2HMgC2Sn2C2HTe2HMgC2Sn2C2HTe2HMg
_chemical_formula_sum              "N40 C260 H156 Sn36 Te36 Mg18"
_cell_length_a       50.4905
_cell_length_b       43.2101
_cell_length_c       8.12849
_cell_angle_alpha    68.9614
_cell_angle_beta     116.013
_cell_angle_gamma    88.9743

_symmetry_space_group_name_H-M    'P1'
_space_group_IT_number       1

loop_
  _space_group_symop_operation_xyz
  'x, y, z'

loop_
  _atom_site_type_symbol
  _atom_site_label
  _atom_site_symmetry_multiplicity
  _atom_site_fract_x
  _atom_site_fract_y
  _atom_site_fract_z
  _atom_site_occupancy
  N   N1        1.0  0.29291  0.30073  0.29112  1.0000
  N   N2        1.0  0.29658  0.25171  0.25980  1.0000
  N   N3        1.0  0.21442  0.74072  0.25021  1.0000
  N   N4        1.0  0.21157  0.79212  0.25488  1.0000
  N   N5        1.0  0.06852  0.77389  0.24932  1.0000
  N   N6        1.0  0.43417  0.31071  0.24424  1.0000
  N   N7        1.0  0.25157  0.58779  0.22752  1.0000
  N   N8        1.0  0.24860  0.08646  0.24218  1.0000
  N   N9        1.0  0.27303  0.95666  0.26258  1.0000
  N   N10       1.0  0.24869  0.45746  0.23508  1.0000
  C   C1        1.0  0.26557  0.29131  0.25906  1.0000
  C   C2        1.0  0.23920  0.30751  0.24005  1.0000
  C   C3        1.0  0.21605  0.28898  0.20775  1.0000
  C   C4        1.0  0.26861  0.25987  0.24183  1.0000
  C   C5        1.0  0.24494  0.24167  0.21050  1.0000
  C   C6        1.0  0.21885  0.25767  0.19477  1.0000
  C   C7        1.0  0.31056  0.27658  0.28655  1.0000
  C   C8        1.0  0.24093  0.75114  0.26918  1.0000
  C   C9        1.0  0.26655  0.73405  0.28175  1.0000
  C   C10       1.0  0.23993  0.78369  0.27672  1.0000
  C   C11       1.0  0.28914  0.78318  0.31678  1.0000
  C   C12       1.0  0.04122  0.76963  0.25009  1.0000
  C   C13       1.0  0.19760  0.76494  0.24810  1.0000
  C   C14       1.0  0.26381  0.80120  0.29945  1.0000
  C   C15       1.0  0.29038  0.75150  0.30755  1.0000
  C   C16       1.0  0.23570  0.34119  0.24263  1.0000
  C   C17       1.0  0.26837  0.70094  0.26920  1.0000
  C   C18       1.0  0.27189  0.60522  0.21850  1.0000
  C   C19       1.0  0.42337  0.28361  0.28180  1.0000
  C   C20       1.0  0.25193  0.55597  0.22124  1.0000
  C   C21       1.0  0.22521  0.54365  0.19195  1.0000
  C   C22       1.0  0.22323  0.51141  0.19674  1.0000
  C   C23       1.0  0.24820  0.48987  0.23224  1.0000
  C   C24       1.0  0.27476  0.50233  0.25772  1.0000
  C   C25       1.0  0.27681  0.53455  0.25422  1.0000
  C   C26       1.0  0.08652  0.74956  0.26899  1.0000
  C   C27       1.0  0.25953  0.93348  0.32370  1.0000
  C   C28       1.0  0.26222  0.11054  0.19452  1.0000
  C   C29       1.0  0.21369  0.35326  0.28018  1.0000
  C   C30       1.0  0.21069  0.38553  0.27879  1.0000
  C   C31       1.0  0.23009  0.40697  0.24436  1.0000
  C   C32       1.0  0.25155  0.39554  0.20148  1.0000
  C   C33       1.0  0.25398  0.36384  0.19845  1.0000
  C   C34       1.0  0.22889  0.43994  0.25465  1.0000
  C   C35       1.0  0.29183  0.68759  0.24755  1.0000
  C   C36       1.0  0.29321  0.65657  0.23254  1.0000
  C   C37       1.0  0.27104  0.63742  0.23783  1.0000
  C   C38       1.0  0.24771  0.65053  0.26008  1.0000
  C   C39       1.0  0.24646  0.68127  0.27646  1.0000
  C   C40       1.0  0.02662  0.74259  0.22741  1.0000
  C   C41       1.0  0.02673  0.79548  0.26793  1.0000
  H   H1        1.0  0.29959  0.32016  0.32985  1.0000
  H   H2        1.0  0.20426  0.81239  0.27001  1.0000
  H   H3        1.0  0.19466  0.29991  0.18698  1.0000
  H   H4        1.0  0.19960  0.24553  0.16746  1.0000
  H   H5        1.0  0.30910  0.79404  0.34276  1.0000
  H   H6        1.0  0.31119  0.73973  0.32499  1.0000
  H   H7        1.0  0.29016  0.59710  0.19429  1.0000
  H   H8        1.0  0.43568  0.25877  0.31841  1.0000
  H   H9        1.0  0.20627  0.56033  0.16772  1.0000
  H   H10       1.0  0.20231  0.50269  0.17301  1.0000
  H   H11       1.0  0.29374  0.48554  0.28303  1.0000
  H   H12       1.0  0.29794  0.54292  0.28057  1.0000
  H   H13       1.0  0.08208  0.72387  0.29434  1.0000
  H   H14       1.0  0.24520  0.93747  0.38761  1.0000
  H   H15       1.0  0.27895  0.10782  0.14551  1.0000
  H   H16       1.0  0.19932  0.33670  0.31668  1.0000
  H   H17       1.0  0.19376  0.39392  0.31107  1.0000
  H   H18       1.0  0.26578  0.41253  0.16696  1.0000
  H   H19       1.0  0.26904  0.35753  0.14764  1.0000
  H   H20       1.0  0.21129  0.44825  0.28377  1.0000
  H   H21       1.0  0.30893  0.70198  0.23791  1.0000
  H   H22       1.0  0.31142  0.64712  0.21425  1.0000
  H   H23       1.0  0.23060  0.63586  0.26504  1.0000
  H   H24       1.0  0.22816  0.69092  0.29234  1.0000
  H   H25       1.0  0.03655  0.72299  0.20461  1.0000
  H   H26       1.0  0.03802  0.81616  0.28559  1.0000
  N   N11       1.0  0.69324  0.30016  0.27804  1.0000
  N   N12       1.0  0.68996  0.24798  0.28822  1.0000
  N   N13       1.0  0.81076  0.73954  0.23215  1.0000
  N   N14       1.0  0.81444  0.79135  0.22779  1.0000
  N   N15       1.0  0.95635  0.77026  0.23477  1.0000
  N   N16       1.0  0.54722  0.30839  0.26318  1.0000
  N   N17       1.0  0.76389  0.58460  0.25871  1.0000
  N   N18       1.0  0.75597  0.08451  0.27815  1.0000
  N   N19       1.0  0.75331  0.95758  0.23132  1.0000
  N   N20       1.0  0.74463  0.45597  0.26831  1.0000
  C   C42       1.0  0.71923  0.28817  0.28120  1.0000
  C   C43       1.0  0.74351  0.30330  0.27389  1.0000
  C   C44       1.0  0.76524  0.28204  0.27561  1.0000
  C   C45       1.0  0.71644  0.25491  0.28625  1.0000
  C   C46       1.0  0.73853  0.23458  0.28267  1.0000
  C   C47       1.0  0.76289  0.24974  0.27973  1.0000
  C   C48       1.0  0.67644  0.27520  0.28318  1.0000
  C   C49       1.0  0.78598  0.75273  0.23660  1.0000
  C   C50       1.0  0.76126  0.73815  0.24405  1.0000
  C   C51       1.0  0.78821  0.78556  0.23762  1.0000
  C   C52       1.0  0.74327  0.79040  0.25798  1.0000
  C   C53       1.0  0.98436  0.76768  0.24066  1.0000
  C   C54       1.0  0.82756  0.76283  0.22875  1.0000
  C   C55       1.0  0.76734  0.80556  0.24938  1.0000
  C   C56       1.0  0.74050  0.75842  0.25574  1.0000
  C   C57       1.0  0.74561  0.60515  0.26440  1.0000
  C   C58       1.0  0.73696  0.20081  0.27935  1.0000
  C   C59       1.0  0.85639  0.75920  0.23072  1.0000
  C   C60       1.0  0.64731  0.27889  0.27677  1.0000
  C   C61       1.0  0.63528  0.30614  0.29743  1.0000
  C   C62       1.0  0.60679  0.30913  0.28280  1.0000
  C   C63       1.0  0.58950  0.28474  0.24759  1.0000
  C   C64       1.0  0.60171  0.25748  0.22823  1.0000
  C   C65       1.0  0.63015  0.25438  0.24351  1.0000
  C   C66       1.0  0.55986  0.28573  0.23492  1.0000
  C   C67       1.0  0.75427  0.05277  0.26989  1.0000
  C   C68       1.0  0.77751  0.03819  0.25121  1.0000
  C   C69       1.0  0.77814  0.00701  0.23793  1.0000
  C   C70       1.0  0.75527  0.98898  0.24354  1.0000
  C   C71       1.0  0.73179  0.00378  0.25917  1.0000
  C   C72       1.0  0.73135  0.03475  0.27410  1.0000
  C   C73       1.0  0.73592  0.13471  0.28352  1.0000
  C   C74       1.0  0.87344  0.78475  0.23335  1.0000
  C   C75       1.0  0.90081  0.78071  0.23431  1.0000
  C   C76       1.0  0.91233  0.75084  0.23328  1.0000
  C   C77       1.0  0.89551  0.72514  0.23311  1.0000
  C   C78       1.0  0.86799  0.72925  0.23119  1.0000
  C   C79       1.0  0.94111  0.74653  0.23397  1.0000
  C   C80       1.0  0.76036  0.18259  0.27727  1.0000
  C   C81       1.0  0.75997  0.15045  0.27956  1.0000
  C   C82       1.0  0.71226  0.15282  0.28125  1.0000
  C   C83       1.0  0.71265  0.18515  0.27936  1.0000
  C   C84       1.0  0.77658  0.93713  0.27285  1.0000
  C   C85       1.0  0.73495  0.10117  0.28374  1.0000
  C   C86       1.0  0.75881  0.43821  0.22117  1.0000
  C   C87       1.0  0.99889  0.74160  0.22324  1.0000
  C   C88       1.0  0.99898  0.79449  0.26342  1.0000
  H   H27       1.0  0.68681  0.32382  0.26205  1.0000
  H   H28       1.0  0.82269  0.81261  0.22473  1.0000
  H   H29       1.0  0.78509  0.29107  0.27398  1.0000
  H   H30       1.0  0.78088  0.23620  0.27691  1.0000
  H   H31       1.0  0.72671  0.80344  0.27556  1.0000
  H   H32       1.0  0.72161  0.74867  0.27021  1.0000
  H   H33       1.0  0.72506  0.59902  0.27252  1.0000
  H   H34       1.0  0.64856  0.32480  0.32968  1.0000
  H   H35       1.0  0.59762  0.32984  0.30143  1.0000
  H   H36       1.0  0.58839  0.23864  0.20032  1.0000
  H   H37       1.0  0.63965  0.23349  0.22804  1.0000
  H   H38       1.0  0.54927  0.26508  0.20359  1.0000
  H   H39       1.0  0.79475  0.05257  0.24472  1.0000
  H   H40       1.0  0.79591  0.99693  0.21821  1.0000
  H   H41       1.0  0.71416  0.98984  0.26211  1.0000
  H   H42       1.0  0.71332  0.04478  0.29163  1.0000
  H   H43       1.0  0.86554  0.80794  0.23741  1.0000
  H   H44       1.0  0.91418  0.80016  0.23813  1.0000
  H   H45       1.0  0.90385  0.70206  0.22991  1.0000
  H   H46       1.0  0.85467  0.70978  0.22711  1.0000
  H   H47       1.0  0.94881  0.72227  0.23693  1.0000
  H   H48       1.0  0.77929  0.19369  0.27304  1.0000
  H   H49       1.0  0.77804  0.13664  0.27814  1.0000
  H   H50       1.0  0.69332  0.14122  0.28259  1.0000
  H   H51       1.0  0.69437  0.19862  0.27998  1.0000
  H   H52       1.0  0.79929  0.94272  0.32645  1.0000
  H   H53       1.0  0.71497  0.09144  0.28389  1.0000
  H   H54       1.0  0.77457  0.44777  0.16489  1.0000
  H   H55       1.0  0.98791  0.72106  0.19868  1.0000
  H   H56       1.0  0.98773  0.81424  0.27826  1.0000
  N   N21       1.0  0.31124  0.28549  0.79366  1.0000
  N   N22       1.0  0.31299  0.23624  0.76043  1.0000
  N   N23       1.0  0.18714  0.73112  0.75672  1.0000
  N   N24       1.0  0.18445  0.78238  0.76456  1.0000
  N   N25       1.0  0.04212  0.77188  0.75686  1.0000
  N   N26       1.0  0.45250  0.29097  0.75475  1.0000
  N   N27       1.0  0.22936  0.57896  0.69792  1.0000
  N   N28       1.0  0.24114  0.07870  0.71912  1.0000
  N   N29       1.0  0.24549  0.94597  0.75740  1.0000
  N   N30       1.0  0.25256  0.44855  0.72481  1.0000
  C   C89       1.0  0.28349  0.27718  0.76207  1.0000
  C   C90       1.0  0.25795  0.29425  0.74718  1.0000
  C   C91       1.0  0.23396  0.27703  0.71168  1.0000
  C   C92       1.0  0.28511  0.24578  0.74112  1.0000
  C   C93       1.0  0.26046  0.22894  0.70737  1.0000
  C   C94       1.0  0.23518  0.24629  0.69340  1.0000
  C   C95       1.0  0.32821  0.26012  0.79225  1.0000
  C   C96       1.0  0.21228  0.74316  0.75477  1.0000
  C   C97       1.0  0.23697  0.72803  0.74908  1.0000
  C   C98       1.0  0.21101  0.77574  0.76084  1.0000
  C   C99       1.0  0.25769  0.77918  0.76307  1.0000
  C   C100      1.0  0.01386  0.77004  0.74667  1.0000
  C   C101      1.0  0.17114  0.75458  0.76584  1.0000
  C   C102      1.0  0.23300  0.79530  0.76150  1.0000
  C   C103      1.0  0.25931  0.74744  0.75527  1.0000
  C   C104      1.0  0.23963  0.69492  0.73796  1.0000
  C   C105      1.0  0.25035  0.59629  0.73253  1.0000
  C   C106      1.0  0.23012  0.82986  0.75272  1.0000
  C   C107      1.0  0.35771  0.26144  0.80340  1.0000
  C   C108      1.0  0.37092  0.28999  0.80322  1.0000
  C   C109      1.0  0.39799  0.29134  0.79736  1.0000
  C   C110      1.0  0.41305  0.26384  0.79510  1.0000
  C   C111      1.0  0.40032  0.23492  0.80227  1.0000
  C   C112      1.0  0.37307  0.23376  0.80484  1.0000
  C   C113      1.0  0.44125  0.26408  0.78666  1.0000
  C   C114      1.0  0.24309  0.04572  0.72814  1.0000
  C   C115      1.0  0.22125  0.02812  0.75912  1.0000
  C   C116      1.0  0.22124  0.99530  0.76907  1.0000
  C   C117      1.0  0.24317  0.97892  0.74734  1.0000
  C   C118      1.0  0.26507  0.99643  0.71748  1.0000
  C   C119      1.0  0.26481  0.02926  0.70530  1.0000
  C   C120      1.0  0.05740  0.74759  0.75573  1.0000
  C   C121      1.0  0.25583  0.84380  0.82370  1.0000
  C   C122      1.0  0.25333  0.87686  0.80787  1.0000
  C   C123      1.0  0.22492  0.89777  0.72310  1.0000
  C   C124      1.0  0.19917  0.88432  0.65060  1.0000
  C   C125      1.0  0.20170  0.85127  0.66308  1.0000
  C   C126      1.0  0.22208  0.93256  0.70590  1.0000
  C   C127      1.0  0.26360  0.09366  0.73363  1.0000
  C   C128      1.0  0.23497  0.42716  0.72917  1.0000
  C   C129      1.0  0.26575  0.68019  0.74744  1.0000
  C   C130      1.0  0.26878  0.64850  0.74337  1.0000
  C   C131      1.0  0.24567  0.63004  0.72715  1.0000
  C   C132      1.0  0.21929  0.64485  0.71284  1.0000
  C   C133      1.0  0.21642  0.67632  0.71967  1.0000
  C   C134      1.0  0.99858  0.74336  0.72774  1.0000
  C   C135      1.0  0.99967  0.79731  0.75582  1.0000
  H   H57       1.0  0.31978  0.30249  0.85163  1.0000
  H   H58       1.0  0.17950  0.80055  0.80411  1.0000
  H   H59       1.0  0.21304  0.28846  0.69375  1.0000
  H   H60       1.0  0.21506  0.23579  0.66478  1.0000
  H   H61       1.0  0.27567  0.79248  0.76082  1.0000
  H   H62       1.0  0.27876  0.73796  0.74910  1.0000
  H   H63       1.0  0.27345  0.58599  0.77235  1.0000
  H   H64       1.0  0.35978  0.31158  0.80504  1.0000
  H   H65       1.0  0.40803  0.31349  0.79407  1.0000
  H   H66       1.0  0.41179  0.21348  0.80103  1.0000
  H   H67       1.0  0.36279  0.21189  0.80399  1.0000
  H   H68       1.0  0.45247  0.23946  0.81214  1.0000
  H   H69       1.0  0.20486  0.04095  0.77892  1.0000
  H   H70       1.0  0.20493  0.98175  0.80105  1.0000
  H   H71       1.0  0.28168  0.98373  0.69884  1.0000
  H   H72       1.0  0.28114  0.04251  0.67229  1.0000
  H   H73       1.0  0.04941  0.72434  0.74921  1.0000
  H   H74       1.0  0.27808  0.82806  0.89396  1.0000
  H   H75       1.0  0.27310  0.88771  0.85820  1.0000
  H   H76       1.0  0.17693  0.90025  0.57986  1.0000
  H   H77       1.0  0.18121  0.84259  0.59410  1.0000
  H   H78       1.0  0.19909  0.94672  0.64307  1.0000
  H   H79       1.0  0.28508  0.08104  0.76014  1.0000
  H   H80       1.0  0.21341  0.43279  0.72648  1.0000
  H   H81       1.0  0.28405  0.69356  0.75855  1.0000
  H   H82       1.0  0.28922  0.63766  0.75177  1.0000
  H   H83       1.0  0.20149  0.63060  0.70186  1.0000
  H   H84       1.0  0.19622  0.68706  0.71319  1.0000
  H   H85       1.0  0.00858  0.72214  0.71705  1.0000
  H   H86       1.0  0.01163  0.81758  0.77282  1.0000
  N   N31       1.0  0.71250  0.28760  0.80508  1.0000
  N   N32       1.0  0.70732  0.23796  0.77741  1.0000
  N   N33       1.0  0.78675  0.73011  0.75339  1.0000
  N   N34       1.0  0.78770  0.78220  0.74816  1.0000
  N   N35       1.0  0.92937  0.77308  0.73785  1.0000
  N   N36       1.0  0.56507  0.29243  0.76875  1.0000
  N   N37       1.0  0.74655  0.57744  0.72009  1.0000
  N   N38       1.0  0.75889  0.07347  0.74189  1.0000
  N   N39       1.0  0.72749  0.94915  0.73485  1.0000
  N   N40       1.0  0.74817  0.44570  0.74417  1.0000
  C   C136      1.0  0.73818  0.27621  0.80154  1.0000
  C   C137      1.0  0.76244  0.29158  0.79727  1.0000
  C   C138      1.0  0.78411  0.27120  0.79296  1.0000
  C   C139      1.0  0.73454  0.24445  0.78706  1.0000
  C   C140      1.0  0.75702  0.22419  0.78639  1.0000
  C   C141      1.0  0.78184  0.23907  0.79169  1.0000
  C   C142      1.0  0.69508  0.26315  0.79510  1.0000
  C   C143      1.0  0.76022  0.74271  0.74095  1.0000
  C   C144      1.0  0.73512  0.72752  0.73279  1.0000
  C   C145      1.0  0.76026  0.77617  0.73510  1.0000
  C   C146      1.0  0.71200  0.78084  0.71102  1.0000
  C   C147      1.0  0.95678  0.77084  0.73436  1.0000
  C   C148      1.0  0.80264  0.75430  0.75513  1.0000
  C   C149      1.0  0.73631  0.79674  0.71729  1.0000
  C   C150      1.0  0.71153  0.74802  0.71858  1.0000
  C   C151      1.0  0.76466  0.32596  0.78944  1.0000
  C   C152      1.0  0.72901  0.59267  0.75843  1.0000
  C   C153      1.0  0.73632  0.83164  0.70354  1.0000
  C   C154      1.0  0.83100  0.75355  0.74934  1.0000
  C   C155      1.0  0.57744  0.27154  0.72858  1.0000
  C   C156      1.0  0.74581  0.54462  0.72942  1.0000
  C   C157      1.0  0.77086  0.52797  0.73654  1.0000
  C   C158      1.0  0.77280  0.49537  0.74482  1.0000
  C   C159      1.0  0.74923  0.47815  0.74138  1.0000
  C   C160      1.0  0.72417  0.49473  0.73428  1.0000
  C   C161      1.0  0.72229  0.52730  0.72771  1.0000
  C   C162      1.0  0.75003  0.04309  0.73782  1.0000
  C   C163      1.0  0.77153  0.01730  0.77075  1.0000
  C   C164      1.0  0.76472  0.98618  0.77314  1.0000
  C   C165      1.0  0.73577  0.97991  0.73691  1.0000
  C   C166      1.0  0.71416  0.00571  0.70296  1.0000
  C   C167      1.0  0.72097  0.03685  0.70061  1.0000
  C   C168      1.0  0.84714  0.77966  0.76350  1.0000
  C   C169      1.0  0.87366  0.77912  0.75147  1.0000
  C   C170      1.0  0.88495  0.75242  0.72337  1.0000
  C   C171      1.0  0.86873  0.72646  0.70811  1.0000
  C   C172      1.0  0.84225  0.72685  0.72152  1.0000
  C   C173      1.0  0.91278  0.75096  0.71125  1.0000
  C   C174      1.0  0.71745  0.84753  0.75045  1.0000
  C   C175      1.0  0.71751  0.88049  0.73782  1.0000
  C   C176      1.0  0.73730  0.89885  0.68332  1.0000
  C   C177      1.0  0.75571  0.88345  0.63391  1.0000
  C   C178      1.0  0.75493  0.85100  0.64028  1.0000
  C   C179      1.0  0.74058  0.93250  0.67680  1.0000
  C   C180      1.0  0.74539  0.09137  0.79195  1.0000
  C   C181      1.0  0.79114  0.33857  0.81355  1.0000
  C   C182      1.0  0.79237  0.37186  0.79298  1.0000
  C   C183      1.0  0.76756  0.39394  0.75473  1.0000
  C   C184      1.0  0.74122  0.38156  0.73327  1.0000
  C   C185      1.0  0.73974  0.34888  0.74632  1.0000
  C   C186      1.0  0.76911  0.42819  0.74272  1.0000
  C   C187      1.0  0.97083  0.74369  0.72252  1.0000
  C   C188      1.0  0.97168  0.79775  0.74911  1.0000
  H   H87       1.0  0.71241  0.30297  0.87471  1.0000
  H   H88       1.0  0.79543  0.80344  0.75299  1.0000
  H   H89       1.0  0.80355  0.28095  0.78796  1.0000
  H   H90       1.0  0.80013  0.22523  0.79280  1.0000
  H   H91       1.0  0.69226  0.79496  0.69405  1.0000
  H   H92       1.0  0.69140  0.73833  0.70852  1.0000
  H   H93       1.0  0.71299  0.58060  0.80501  1.0000
  H   H94       1.0  0.56615  0.25256  0.67918  1.0000
  H   H95       1.0  0.78853  0.54183  0.73368  1.0000
  H   H96       1.0  0.79238  0.48359  0.74861  1.0000
  H   H97       1.0  0.70628  0.48103  0.73364  1.0000
  H   H98       1.0  0.70249  0.53949  0.71993  1.0000
  H   H99       1.0  0.79368  0.02244  0.79569  1.0000
  H   H100      1.0  0.78203  0.96639  0.80444  1.0000
  H   H101      1.0  0.69187  0.00076  0.67504  1.0000
  H   H102      1.0  0.70364  0.05674  0.66857  1.0000
  H   H103      1.0  0.83918  0.80032  0.78801  1.0000
  H   H104      1.0  0.88647  0.79884  0.76613  1.0000
  H   H105      1.0  0.87697  0.70610  0.68237  1.0000
  H   H106      1.0  0.82948  0.70714  0.70678  1.0000
  H   H107      1.0  0.91854  0.72996  0.67849  1.0000
  H   H108      1.0  0.70306  0.83322  0.80203  1.0000
  H   H109      1.0  0.70247  0.89259  0.77048  1.0000
  H   H110      1.0  0.77045  0.89758  0.58589  1.0000
  H   H111      1.0  0.76768  0.84198  0.58248  1.0000
  H   H112      1.0  0.75567  0.94343  0.61741  1.0000
  H   H113      1.0  0.72863  0.08222  0.83931  1.0000
  H   H114      1.0  0.81107  0.32221  0.84735  1.0000
  H   H115      1.0  0.81299  0.38094  0.80925  1.0000
  H   H116      1.0  0.72194  0.39865  0.70250  1.0000
  H   H117      1.0  0.71812  0.34174  0.71188  1.0000
  H   H118      1.0  0.78899  0.43744  0.73726  1.0000
  H   H119      1.0  0.95984  0.72268  0.70858  1.0000
  H   H120      1.0  0.96090  0.81850  0.75925  1.0000
  C   C189      1.0  0.35756  0.31362  0.28332  1.0000
  C   C190      1.0  0.34092  0.28819  0.27607  1.0000
  C  Sn1       1.0  0.35257  0.25804  0.28162  1.0000
  C  Sn2       1.0  0.38143  0.25334  0.29474  1.0000
  C   C191      1.0  0.39791  0.27892  0.30205  1.0000
  C   C192      1.0  0.38603  0.30899  0.29633  1.0000
  H   H121      1.0  0.34838  0.33688  0.27900  1.0000
  O  Te1       1.0  0.33564  0.23290  0.27417  1.0000
  O  Te2       1.0  0.39361  0.22345  0.30060  1.0000
  H   H122      1.0  0.39893  0.32867  0.30208  1.0000
  Mg  Mg1       1.0  0.36190  0.19663  0.28642  1.0000
  C   C193      1.0  0.72843  0.16703  0.82250  1.0000
  C   C194      1.0  0.74991  0.18593  0.80378  1.0000
  C  Sn3       1.0  0.77198  0.17382  0.76936  1.0000
  C  Sn4       1.0  0.77250  0.14220  0.75341  1.0000
  C   C195      1.0  0.75090  0.12350  0.77222  1.0000
  C   C196      1.0  0.72892  0.13585  0.80671  1.0000
  H   H123      1.0  0.71141  0.17660  0.84908  1.0000
  O  Te3       1.0  0.79328  0.19302  0.75110  1.0000
  O  Te4       1.0  0.79431  0.12950  0.71897  1.0000
  H   H124      1.0  0.71229  0.12122  0.82107  1.0000
  Mg  Mg2       1.0  0.81851  0.16498  0.70487  1.0000
  C   C197      1.0  0.28555  0.88079  0.26122  1.0000
  C   C198      1.0  0.26629  0.89845  0.29445  1.0000
  C  Sn5       1.0  0.24561  0.88286  0.34852  1.0000
  C  Sn6       1.0  0.24425  0.84896  0.36966  1.0000
  C   C199      1.0  0.26363  0.83150  0.33623  1.0000
  C   C200      1.0  0.28423  0.84734  0.28212  1.0000
  H   H125      1.0  0.30151  0.89303  0.21946  1.0000
  O  Te5       1.0  0.22653  0.90088  0.38108  1.0000
  O  Te6       1.0  0.22380  0.83277  0.42363  1.0000
  H   H126      1.0  0.29916  0.83366  0.25653  1.0000
  Mg  Mg3       1.0  0.20249  0.86787  0.45193  1.0000
  C   C201      1.0  0.15412  0.72582  0.27330  1.0000
  C   C202      1.0  0.16628  0.75488  0.24254  1.0000
  C  Sn7       1.0  0.15224  0.78448  0.22932  1.0000
  C  Sn8       1.0  0.12554  0.78491  0.24735  1.0000
  C   C203      1.0  0.11357  0.75570  0.27824  1.0000
  C   C204      1.0  0.12780  0.72622  0.29116  1.0000
  H   H127      1.0  0.16514  0.70301  0.28341  1.0000
  O  Te7       1.0  0.16467  0.81330  0.19849  1.0000
  O  Te8       1.0  0.11105  0.81415  0.23479  1.0000
  H   H128      1.0  0.11839  0.70372  0.31511  1.0000
  Mg  Mg4       1.0  0.13668  0.84702  0.19171  1.0000
  C   C205      1.0  0.28966  0.16979  0.71333  1.0000
  C   C206      1.0  0.26636  0.19218  0.68664  1.0000
  C  Sn9       1.0  0.24027  0.18146  0.68364  1.0000
  C  Sn10      1.0  0.23753  0.14768  0.70790  1.0000
  C   C207      1.0  0.26098  0.12547  0.73465  1.0000
  C   C208      1.0  0.28699  0.13646  0.73734  1.0000
  H   H129      1.0  0.30979  0.17828  0.71552  1.0000
  O  Te9       1.0  0.21719  0.20417  0.65675  1.0000
  O  Te10      1.0  0.21171  0.13630  0.70559  1.0000
  H   H130      1.0  0.30504  0.11911  0.75814  1.0000
  Mg  Mg5       1.0  0.18641  0.17673  0.66437  1.0000
  C   C209      1.0  0.27482  0.35934  0.72154  1.0000
  C   C210      1.0  0.26022  0.33244  0.75688  1.0000
  C  Sn11      1.0  0.23503  0.33636  0.78337  1.0000
  C  Sn12      1.0  0.22430  0.36783  0.77418  1.0000
  C   C211      1.0  0.23904  0.39459  0.73861  1.0000
  C   C212      1.0  0.26424  0.39039  0.71238  1.0000
  H   H131      1.0  0.29430  0.35609  0.70113  1.0000
  O  Te11      1.0  0.22072  0.30923  0.81862  1.0000
  O  Te12      1.0  0.19916  0.37245  0.80006  1.0000
  H   H132      1.0  0.27552  0.41122  0.68489  1.0000
  Mg  Mg6       1.0  0.18732  0.32792  0.84444  1.0000
  C   C213      1.0  0.23098  0.02719  0.22522  1.0000
  C   C214      1.0  0.25101  0.04901  0.25476  1.0000
  C  Sn13      1.0  0.27953  0.04087  0.27552  1.0000
  C  Sn14      1.0  0.28809  0.01032  0.26642  1.0000
  C   C215      1.0  0.26788  0.98867  0.23668  1.0000
  C   C216      1.0  0.23940  0.99705  0.21616  1.0000
  H   H133      1.0  0.20893  0.03368  0.20923  1.0000
  O  Te13      1.0  0.29927  0.06295  0.30501  1.0000
  O  Te14      1.0  0.31645  0.00157  0.28664  1.0000
  H   H134      1.0  0.20856  0.98017  0.19316  1.0000
  Mg  Mg7       1.0  0.33545  0.03990  0.32438  1.0000
  C   C217      1.0  0.63182  0.29786  0.80771  1.0000
  C   C218      1.0  0.61099  0.27772  0.75451  1.0000
  C  Sn15      1.0  0.61886  0.24967  0.72559  1.0000
  C  Sn16      1.0  0.64813  0.24167  0.75056  1.0000
  C   C219      1.0  0.66881  0.26196  0.80395  1.0000
  C   C220      1.0  0.66070  0.28998  0.83245  1.0000
  H   H135      1.0  0.62555  0.31953  0.82988  1.0000
  O  Te15      1.0  0.59778  0.22983  0.67240  1.0000
  O  Te16      1.0  0.65659  0.21377  0.72266  1.0000
  H   H136      1.0  0.67683  0.30555  0.87377  1.0000
  Mg  Mg8       1.0  0.61994  0.19443  0.65098  1.0000
  C   C221      1.0  0.77454  0.37705  0.19637  1.0000
  C   C222      1.0  0.75915  0.40020  0.22473  1.0000
  C  Sn17      1.0  0.73751  0.39108  0.28623  1.0000
  C  Sn18      1.0  0.73122  0.35815  0.31988  1.0000
  C   C223      1.0  0.74676  0.33516  0.29122  1.0000
  C   C224      1.0  0.76836  0.34456  0.22960  1.0000
  H   H137      1.0  0.79127  0.38431  0.14880  1.0000
  O  Te17      1.0  0.72233  0.41452  0.31379  1.0000
  O  Te18      1.0  0.70971  0.34836  0.38147  1.0000
  H   H138      1.0  0.78030  0.32663  0.20778  1.0000
  Mg  Mg9       1.0  0.69497  0.38927  0.39871  1.0000
  C   C225      1.0  0.50145  0.32046  0.77910  1.0000
  C   C226      1.0  0.48233  0.29792  0.74420  1.0000
  C  Sn19      1.0  0.49156  0.26933  0.72474  1.0000
  C  Sn20      1.0  0.52047  0.26326  0.74064  1.0000
  C   C227      1.0  0.53944  0.28596  0.77572  1.0000
  C   C228      1.0  0.52998  0.31449  0.79488  1.0000
  H   H139      1.0  0.49414  0.34253  0.79404  1.0000
  O  Te19      1.0  0.47217  0.24708  0.68982  1.0000
  O  Te20      1.0  0.53026  0.23488  0.72187  1.0000
  H   H140      1.0  0.54479  0.33193  0.82204  1.0000
  Mg  Mg10      1.0  0.49571  0.21195  0.67501  1.0000
  C   C229      1.0  0.72553  0.51681  0.26228  1.0000
  C   C230      1.0  0.74358  0.49374  0.25002  1.0000
  C  Sn21      1.0  0.77042  0.50054  0.24828  1.0000
  C  Sn22      1.0  0.77931  0.53102  0.25910  1.0000
  C   C231      1.0  0.76110  0.55392  0.27147  1.0000
  C   C232      1.0  0.73428  0.54687  0.27303  1.0000
  H   H141      1.0  0.70478  0.51135  0.26360  1.0000
  O  Te21      1.0  0.78819  0.47722  0.23589  1.0000
  O  Te22      1.0  0.80603  0.53844  0.25771  1.0000
  H   H142      1.0  0.72032  0.56473  0.28266  1.0000
  Mg  Mg11      1.0  0.82262  0.49872  0.23884  1.0000
  C   C233      1.0  0.72657  0.68596  0.23811  1.0000
  C   C234      1.0  0.75093  0.70156  0.24856  1.0000
  C  Sn23      1.0  0.77573  0.68522  0.25512  1.0000
  C  Sn24      1.0  0.77609  0.65267  0.25108  1.0000
  C   C235      1.0  0.75160  0.63728  0.24047  1.0000
  C   C236      1.0  0.72690  0.65386  0.23404  1.0000
  H   H143      1.0  0.70746  0.69879  0.23302  1.0000
  O  Te23      1.0  0.79988  0.70116  0.26561  1.0000
  O  Te24      1.0  0.80058  0.63577  0.25739  1.0000
  H   H144      1.0  0.70804  0.64178  0.22582  1.0000
  Mg  Mg12      1.0  0.82813  0.66792  0.27119  1.0000
  C   C237      1.0  0.70632  0.66996  0.76488  1.0000
  C   C238      1.0  0.72793  0.68907  0.75231  1.0000
  C  Sn25      1.0  0.75102  0.67709  0.72579  1.0000
  C  Sn26      1.0  0.75242  0.64538  0.71160  1.0000
  C   C239      1.0  0.73068  0.62646  0.72422  1.0000
  C   C240      1.0  0.70768  0.63869  0.75082  1.0000
  H   H145      1.0  0.68851  0.67943  0.78535  1.0000
  O  Te25      1.0  0.77243  0.69650  0.71361  1.0000
  O  Te26      1.0  0.77525  0.63280  0.68501  1.0000
  H   H146      1.0  0.69094  0.62389  0.76042  1.0000
  Mg  Mg13      1.0  0.79921  0.66857  0.67713  1.0000
  C   C241      1.0  0.74025  0.87163  0.17457  1.0000
  C   C242      1.0  0.76300  0.84535  0.22878  1.0000
  C  Sn27      1.0  0.79311  0.84833  0.31105  1.0000
  C  Sn28      1.0  0.80051  0.87819  0.33944  1.0000
  C   C243      1.0  0.77759  0.90432  0.28485  1.0000
  C   C244      1.0  0.74753  0.90109  0.20260  1.0000
  H   H147      1.0  0.71699  0.86912  0.11103  1.0000
  O  Te27      1.0  0.81556  0.82184  0.36431  1.0000
  O  Te28      1.0  0.83042  0.88182  0.42142  1.0000
  H   H148      1.0  0.72992  0.92143  0.16076  1.0000
  Mg  Mg14      1.0  0.85301  0.83873  0.47037  1.0000
  C   C245      1.0  0.22929  0.15992  0.23983  1.0000
  C   C246      1.0  0.24917  0.14609  0.19506  1.0000
  C  Sn29      1.0  0.27012  0.16394  0.15730  1.0000
  C  Sn30      1.0  0.27113  0.19623  0.16466  1.0000
  C   C247      1.0  0.25116  0.20985  0.20972  1.0000
  C   C248      1.0  0.23028  0.19177  0.24720  1.0000
  H   H149      1.0  0.21315  0.14593  0.26894  1.0000
  O  Te29      1.0  0.28981  0.14975  0.11273  1.0000
  O  Te30      1.0  0.29185  0.21462  0.12761  1.0000
  H   H150      1.0  0.21490  0.20248  0.28199  1.0000
  Mg  Mg15      1.0  0.31400  0.18459  0.07332  1.0000
  C   C249      1.0  0.11961  0.78431  0.76330  1.0000
  C   C250      1.0  0.13970  0.75972  0.77654  1.0000
  C  Sn31      1.0  0.13201  0.72892  0.77424  1.0000
  C  Sn32      1.0  0.10367  0.72270  0.75833  1.0000
  C   C251      1.0  0.08372  0.74747  0.74503  1.0000
  C   C252      1.0  0.09164  0.77820  0.74753  1.0000
  H   H151      1.0  0.12572  0.80809  0.76513  1.0000
  O  Te31      1.0  0.15236  0.70463  0.78767  1.0000
  O  Te32      1.0  0.09542  0.69214  0.75561  1.0000
  H   H152      1.0  0.07607  0.79724  0.73715  1.0000
  Mg  Mg16      1.0  0.13082  0.66693  0.77783  1.0000
  C   C253      1.0  0.48527  0.33722  0.28670  1.0000
  C   C254      1.0  0.46441  0.31700  0.23626  1.0000
  C  Sn33      1.0  0.47167  0.28955  0.20041  1.0000
  C  Sn34      1.0  0.50037  0.28228  0.21552  1.0000
  C   C255      1.0  0.52109  0.30265  0.26622  1.0000
  C   C256      1.0  0.51358  0.33006  0.30171  1.0000
  H   H153      1.0  0.47948  0.35842  0.31427  1.0000
  O  Te33      1.0  0.45056  0.26961  0.15010  1.0000
  O  Te34      1.0  0.50821  0.25499  0.18056  1.0000
  H   H154      1.0  0.52975  0.34570  0.34090  1.0000
  Mg  Mg17      1.0  0.47178  0.23522  0.11637  1.0000
  C   C257      1.0  0.26554  0.51190  0.66951  1.0000
  C   C258      1.0  0.25151  0.48530  0.72323  1.0000
  C  Sn35      1.0  0.22745  0.49059  0.75846  1.0000
  C  Sn36      1.0  0.21729  0.52314  0.73938  1.0000
  C   C259      1.0  0.23146  0.54959  0.68543  1.0000
  C   C260      1.0  0.25552  0.54401  0.65059  1.0000
  H   H155      1.0  0.28414  0.50759  0.64244  1.0000
  O  Te35      1.0  0.21370  0.46374  0.81208  1.0000
  O  Te36      1.0  0.19329  0.52913  0.77365  1.0000
  H   H156      1.0  0.26636  0.56461  0.60887  1.0000
  Mg  Mg18      1.0  0.18185  0.48447  0.84331  1.0000
