data_image0
_chemical_formula_structural       N10C35H22N10C53H34N10C53H34N10C47H30SnCSn2CSnTe4Mg2SnCSn2CSnTe4Mg2SnCSn2CSnTe4Mg2SnCSn2CSnTe4Mg2SnCSn2CSnTe4Mg2SnCSn2CSnTe4Mg2SnCSn2CSnTe4Mg2SnCSn2CSnTe4Mg2SnCSn2CSnTe4Mg2SnCSn2CSnTe4Mg2SnCSn2CSnTe4Mg2SnCSn2CSnTe4Mg2SnCSn2CSnTe4Mg2SnCSn2CSnTe4Mg2SnCSn2CSnTe4Mg2SnCSn2CSnTe4Mg2SnCSn2CSnTe4Mg2SnCSn2CSnTe4Mg2
_chemical_formula_sum              "N40 C224 H120 Sn72 Te72 Mg36"
_cell_length_a       50.4905
_cell_length_b       43.2101
_cell_length_c       8.12849
_cell_angle_alpha    68.9614
_cell_angle_beta     116.013
_cell_angle_gamma    88.9743

_symmetry_space_group_name_H-M    'P1'
_space_group_IT_number       1

loop_
  _space_group_symop_operation_xyz
  'x, y, z'

loop_
  _atom_site_type_symbol
  _atom_site_label
  _atom_site_symmetry_multiplicity
  _atom_site_fract_x
  _atom_site_fract_y
  _atom_site_fract_z
  _atom_site_occupancy
  N   N1        1.0  0.29291  0.30073  0.29112  1.0000
  N   N2        1.0  0.29658  0.25171  0.25980  1.0000
  N   N3        1.0  0.21442  0.74072  0.25021  1.0000
  N   N4        1.0  0.21157  0.79212  0.25488  1.0000
  N   N5        1.0  0.06852  0.77389  0.24932  1.0000
  N   N6        1.0  0.43417  0.31071  0.24424  1.0000
  N   N7        1.0  0.25157  0.58779  0.22752  1.0000
  N   N8        1.0  0.24860  0.08646  0.24218  1.0000
  N   N9        1.0  0.27303  0.95666  0.26258  1.0000
  N   N10       1.0  0.24869  0.45746  0.23508  1.0000
  C   C1        1.0  0.26557  0.29131  0.25906  1.0000
  C   C2        1.0  0.23920  0.30751  0.24005  1.0000
  C   C3        1.0  0.21605  0.28898  0.20775  1.0000
  C   C4        1.0  0.26861  0.25987  0.24183  1.0000
  C   C5        1.0  0.24494  0.24167  0.21050  1.0000
  C   C6        1.0  0.21885  0.25767  0.19477  1.0000
  C   C7        1.0  0.31056  0.27658  0.28655  1.0000
  C   C8        1.0  0.24093  0.75114  0.26918  1.0000
  C   C9        1.0  0.26655  0.73405  0.28175  1.0000
  C   C10       1.0  0.23993  0.78369  0.27672  1.0000
  C   C11       1.0  0.28914  0.78318  0.31678  1.0000
  C   C12       1.0  0.04122  0.76963  0.25009  1.0000
  C   C13       1.0  0.19760  0.76494  0.24810  1.0000
  C   C14       1.0  0.26381  0.80120  0.29945  1.0000
  C   C15       1.0  0.29038  0.75150  0.30755  1.0000
  C   C16       1.0  0.26837  0.70094  0.26920  1.0000
  C   C17       1.0  0.27189  0.60522  0.21850  1.0000
  C   C18       1.0  0.24794  0.20858  0.19927  1.0000
  C   C19       1.0  0.42337  0.28361  0.28180  1.0000
  C   C20       1.0  0.25640  0.14340  0.19750  1.0000
  C   C21       1.0  0.08652  0.74956  0.26899  1.0000
  C   C22       1.0  0.22886  0.18592  0.22821  1.0000
  C   C23       1.0  0.23313  0.15396  0.22925  1.0000
  C   C24       1.0  0.27477  0.16619  0.16232  1.0000
  C   C25       1.0  0.27079  0.19792  0.16392  1.0000
  C   C26       1.0  0.25953  0.93348  0.32370  1.0000
  C   C27       1.0  0.26222  0.11054  0.19452  1.0000
  C   C28       1.0  0.22889  0.43994  0.25465  1.0000
  C   C29       1.0  0.29183  0.68759  0.24755  1.0000
  C   C30       1.0  0.29321  0.65657  0.23254  1.0000
  C   C31       1.0  0.27104  0.63742  0.23783  1.0000
  C   C32       1.0  0.24771  0.65053  0.26008  1.0000
  C   C33       1.0  0.24646  0.68127  0.27646  1.0000
  C   C34       1.0  0.02662  0.74259  0.22741  1.0000
  C   C35       1.0  0.02673  0.79548  0.26793  1.0000
  H   H1        1.0  0.29959  0.32016  0.32985  1.0000
  H   H2        1.0  0.20426  0.81239  0.27001  1.0000
  H   H3        1.0  0.19466  0.29991  0.18698  1.0000
  H   H4        1.0  0.19960  0.24553  0.16746  1.0000
  H   H5        1.0  0.30910  0.79404  0.34276  1.0000
  H   H6        1.0  0.31119  0.73973  0.32499  1.0000
  H   H7        1.0  0.29016  0.59710  0.19429  1.0000
  H   H8        1.0  0.43568  0.25877  0.31841  1.0000
  H   H9        1.0  0.08208  0.72387  0.29434  1.0000
  H   H10       1.0  0.21110  0.19293  0.25761  1.0000
  H   H11       1.0  0.21890  0.13639  0.25743  1.0000
  H   H12       1.0  0.29230  0.15877  0.13186  1.0000
  H   H13       1.0  0.28555  0.21477  0.13915  1.0000
  H   H14       1.0  0.24520  0.93747  0.38761  1.0000
  H   H15       1.0  0.27895  0.10782  0.14551  1.0000
  H   H16       1.0  0.21129  0.44825  0.28377  1.0000
  H   H17       1.0  0.30893  0.70198  0.23791  1.0000
  H   H18       1.0  0.31142  0.64712  0.21425  1.0000
  H   H19       1.0  0.23060  0.63586  0.26504  1.0000
  H   H20       1.0  0.22816  0.69092  0.29234  1.0000
  H   H21       1.0  0.03655  0.72299  0.20461  1.0000
  H   H22       1.0  0.03802  0.81616  0.28559  1.0000
  N   N11       1.0  0.69324  0.30016  0.27804  1.0000
  N   N12       1.0  0.68996  0.24798  0.28822  1.0000
  N   N13       1.0  0.81076  0.73954  0.23215  1.0000
  N   N14       1.0  0.81444  0.79135  0.22779  1.0000
  N   N15       1.0  0.95635  0.77026  0.23477  1.0000
  N   N16       1.0  0.54722  0.30839  0.26318  1.0000
  N   N17       1.0  0.76389  0.58460  0.25871  1.0000
  N   N18       1.0  0.75597  0.08451  0.27815  1.0000
  N   N19       1.0  0.75331  0.95758  0.23132  1.0000
  N   N20       1.0  0.74463  0.45597  0.26831  1.0000
  C   C36       1.0  0.71923  0.28817  0.28120  1.0000
  C   C37       1.0  0.74351  0.30330  0.27389  1.0000
  C   C38       1.0  0.76524  0.28204  0.27561  1.0000
  C   C39       1.0  0.71644  0.25491  0.28625  1.0000
  C   C40       1.0  0.73853  0.23458  0.28267  1.0000
  C   C41       1.0  0.76289  0.24974  0.27973  1.0000
  C   C42       1.0  0.67644  0.27520  0.28318  1.0000
  C   C43       1.0  0.78598  0.75273  0.23660  1.0000
  C   C44       1.0  0.76126  0.73815  0.24405  1.0000
  C   C45       1.0  0.78821  0.78556  0.23762  1.0000
  C   C46       1.0  0.74327  0.79040  0.25798  1.0000
  C   C47       1.0  0.98436  0.76768  0.24066  1.0000
  C   C48       1.0  0.82756  0.76283  0.22875  1.0000
  C   C49       1.0  0.76734  0.80556  0.24938  1.0000
  C   C50       1.0  0.74050  0.75842  0.25574  1.0000
  C   C51       1.0  0.74711  0.33756  0.26402  1.0000
  C   C52       1.0  0.75743  0.70444  0.24421  1.0000
  C   C53       1.0  0.74561  0.60515  0.26440  1.0000
  C   C54       1.0  0.85639  0.75920  0.23072  1.0000
  C   C55       1.0  0.64731  0.27889  0.27677  1.0000
  C   C56       1.0  0.63528  0.30614  0.29743  1.0000
  C   C57       1.0  0.60679  0.30913  0.28280  1.0000
  C   C58       1.0  0.58950  0.28474  0.24759  1.0000
  C   C59       1.0  0.60171  0.25748  0.22823  1.0000
  C   C60       1.0  0.63015  0.25438  0.24351  1.0000
  C   C61       1.0  0.55986  0.28573  0.23492  1.0000
  C   C62       1.0  0.75758  0.55323  0.25704  1.0000
  C   C63       1.0  0.77938  0.53203  0.25891  1.0000
  C   C64       1.0  0.77587  0.50009  0.26099  1.0000
  C   C65       1.0  0.75006  0.48797  0.26022  1.0000
  C   C66       1.0  0.72823  0.50916  0.25791  1.0000
  C   C67       1.0  0.73166  0.54114  0.25438  1.0000
  C   C68       1.0  0.87344  0.78475  0.23335  1.0000
  C   C69       1.0  0.90081  0.78071  0.23431  1.0000
  C   C70       1.0  0.91233  0.75084  0.23328  1.0000
  C   C71       1.0  0.89551  0.72514  0.23311  1.0000
  C   C72       1.0  0.86799  0.72925  0.23119  1.0000
  C   C73       1.0  0.94111  0.74653  0.23397  1.0000
  C   C74       1.0  0.77658  0.93713  0.27285  1.0000
  C   C75       1.0  0.73495  0.10117  0.28374  1.0000
  C   C76       1.0  0.76816  0.35279  0.20844  1.0000
  C   C77       1.0  0.77197  0.38507  0.19797  1.0000
  C   C78       1.0  0.75453  0.40426  0.23728  1.0000
  C   C79       1.0  0.73347  0.38945  0.29251  1.0000
  C   C80       1.0  0.73028  0.35683  0.30795  1.0000
  C   C81       1.0  0.75881  0.43821  0.22117  1.0000
  C   C82       1.0  0.73152  0.69231  0.24144  1.0000
  C   C83       1.0  0.72824  0.66004  0.24991  1.0000
  C   C84       1.0  0.75041  0.63847  0.25808  1.0000
  C   C85       1.0  0.77589  0.65065  0.25454  1.0000
  C   C86       1.0  0.77938  0.68276  0.24870  1.0000
  C   C87       1.0  0.99889  0.74160  0.22324  1.0000
  C   C88       1.0  0.99898  0.79449  0.26342  1.0000
  H   H23       1.0  0.68681  0.32382  0.26205  1.0000
  H   H24       1.0  0.82269  0.81261  0.22473  1.0000
  H   H25       1.0  0.78509  0.29107  0.27398  1.0000
  H   H26       1.0  0.78088  0.23620  0.27691  1.0000
  H   H27       1.0  0.72671  0.80344  0.27556  1.0000
  H   H28       1.0  0.72161  0.74867  0.27021  1.0000
  H   H29       1.0  0.72506  0.59902  0.27252  1.0000
  H   H30       1.0  0.64856  0.32480  0.32968  1.0000
  H   H31       1.0  0.59762  0.32984  0.30143  1.0000
  H   H32       1.0  0.58839  0.23864  0.20032  1.0000
  H   H33       1.0  0.63965  0.23349  0.22804  1.0000
  H   H34       1.0  0.54927  0.26508  0.20359  1.0000
  H   H35       1.0  0.79914  0.54161  0.25864  1.0000
  H   H36       1.0  0.79330  0.48429  0.26459  1.0000
  H   H37       1.0  0.70862  0.49950  0.26061  1.0000
  H   H38       1.0  0.71436  0.55644  0.25455  1.0000
  H   H39       1.0  0.86554  0.80794  0.23741  1.0000
  H   H40       1.0  0.91418  0.80016  0.23813  1.0000
  H   H41       1.0  0.90385  0.70206  0.22991  1.0000
  H   H42       1.0  0.85467  0.70978  0.22711  1.0000
  H   H43       1.0  0.94881  0.72227  0.23693  1.0000
  H   H44       1.0  0.79929  0.94272  0.32645  1.0000
  H   H45       1.0  0.71497  0.09144  0.28389  1.0000
  H   H46       1.0  0.78140  0.33957  0.16925  1.0000
  H   H47       1.0  0.78828  0.39607  0.15405  1.0000
  H   H48       1.0  0.72012  0.40386  0.32570  1.0000
  H   H49       1.0  0.71552  0.34564  0.36668  1.0000
  H   H50       1.0  0.77457  0.44777  0.16489  1.0000
  H   H51       1.0  0.71374  0.70812  0.23413  1.0000
  H   H52       1.0  0.70830  0.65105  0.25116  1.0000
  H   H53       1.0  0.79274  0.63438  0.25591  1.0000
  H   H54       1.0  0.79912  0.69185  0.24567  1.0000
  H   H55       1.0  0.98791  0.72106  0.19868  1.0000
  H   H56       1.0  0.98773  0.81424  0.27826  1.0000
  N   N21       1.0  0.31124  0.28549  0.79366  1.0000
  N   N22       1.0  0.31299  0.23624  0.76043  1.0000
  N   N23       1.0  0.18714  0.73112  0.75672  1.0000
  N   N24       1.0  0.18445  0.78238  0.76456  1.0000
  N   N25       1.0  0.04212  0.77188  0.75686  1.0000
  N   N26       1.0  0.45250  0.29097  0.75475  1.0000
  N   N27       1.0  0.22936  0.57896  0.69792  1.0000
  N   N28       1.0  0.24114  0.07870  0.71912  1.0000
  N   N29       1.0  0.24549  0.94597  0.75740  1.0000
  N   N30       1.0  0.25256  0.44855  0.72481  1.0000
  C   C89       1.0  0.28349  0.27718  0.76207  1.0000
  C   C90       1.0  0.25795  0.29425  0.74718  1.0000
  C   C91       1.0  0.23396  0.27703  0.71168  1.0000
  C   C92       1.0  0.28511  0.24578  0.74112  1.0000
  C   C93       1.0  0.26046  0.22894  0.70737  1.0000
  C   C94       1.0  0.23518  0.24629  0.69340  1.0000
  C   C95       1.0  0.32821  0.26012  0.79225  1.0000
  C   C96       1.0  0.21228  0.74316  0.75477  1.0000
  C   C97       1.0  0.23697  0.72803  0.74908  1.0000
  C   C98       1.0  0.21101  0.77574  0.76084  1.0000
  C   C99       1.0  0.25769  0.77918  0.76307  1.0000
  C   C100      1.0  0.17114  0.75458  0.76584  1.0000
  C   C101      1.0  0.23300  0.79530  0.76150  1.0000
  C   C102      1.0  0.25931  0.74744  0.75527  1.0000
  C   C103      1.0  0.25439  0.32732  0.75654  1.0000
  C   C104      1.0  0.23963  0.69492  0.73796  1.0000
  C   C105      1.0  0.25035  0.59629  0.73253  1.0000
  C   C106      1.0  0.23012  0.82986  0.75272  1.0000
  C   C107      1.0  0.14255  0.75298  0.76706  1.0000
  C   C108      1.0  0.44125  0.26408  0.78666  1.0000
  C   C109      1.0  0.24309  0.04572  0.72814  1.0000
  C   C110      1.0  0.22125  0.02812  0.75912  1.0000
  C   C111      1.0  0.22124  0.99530  0.76907  1.0000
  C   C112      1.0  0.24317  0.97892  0.74734  1.0000
  C   C113      1.0  0.26507  0.99643  0.71748  1.0000
  C   C114      1.0  0.26481  0.02926  0.70530  1.0000
  C   C115      1.0  0.12655  0.77990  0.76838  1.0000
  C   C116      1.0  0.09908  0.77830  0.76673  1.0000
  C   C117      1.0  0.08650  0.74959  0.76207  1.0000
  C   C118      1.0  0.10250  0.72259  0.76168  1.0000
  C   C119      1.0  0.13014  0.72413  0.76449  1.0000
  C   C120      1.0  0.05740  0.74759  0.75573  1.0000
  C   C121      1.0  0.25583  0.84380  0.82370  1.0000
  C   C122      1.0  0.25333  0.87686  0.80787  1.0000
  C   C123      1.0  0.22492  0.89777  0.72310  1.0000
  C   C124      1.0  0.19917  0.88432  0.65060  1.0000
  C   C125      1.0  0.20170  0.85127  0.66308  1.0000
  C   C126      1.0  0.22208  0.93256  0.70590  1.0000
  C   C127      1.0  0.26360  0.09366  0.73363  1.0000
  C   C128      1.0  0.23007  0.33799  0.77946  1.0000
  C   C129      1.0  0.22381  0.37044  0.76631  1.0000
  C   C130      1.0  0.24234  0.39360  0.73888  1.0000
  C   C131      1.0  0.26744  0.38281  0.72477  1.0000
  C   C132      1.0  0.27301  0.35071  0.73041  1.0000
  C   C133      1.0  0.23497  0.42716  0.72917  1.0000
  C   C134      1.0  0.26575  0.68019  0.74744  1.0000
  C   C135      1.0  0.26878  0.64850  0.74337  1.0000
  C   C136      1.0  0.24567  0.63004  0.72715  1.0000
  C   C137      1.0  0.21929  0.64485  0.71284  1.0000
  C   C138      1.0  0.21642  0.67632  0.71967  1.0000
  C   C139      1.0  0.47995  0.28970  0.75119  1.0000
  C   C140      1.0  0.49465  0.31658  0.76965  1.0000
  C   C141      1.0  0.49413  0.26330  0.73464  1.0000
  H   H57       1.0  0.31978  0.30249  0.85163  1.0000
  H   H58       1.0  0.17950  0.80055  0.80411  1.0000
  H   H59       1.0  0.21304  0.28846  0.69375  1.0000
  H   H60       1.0  0.21506  0.23579  0.66478  1.0000
  H   H61       1.0  0.27567  0.79248  0.76082  1.0000
  H   H62       1.0  0.27876  0.73796  0.74910  1.0000
  H   H63       1.0  0.27345  0.58599  0.77235  1.0000
  H   H64       1.0  0.45247  0.23946  0.81214  1.0000
  H   H65       1.0  0.20486  0.04095  0.77892  1.0000
  H   H66       1.0  0.20493  0.98175  0.80105  1.0000
  H   H67       1.0  0.28168  0.98373  0.69884  1.0000
  H   H68       1.0  0.28114  0.04251  0.67229  1.0000
  H   H69       1.0  0.13579  0.80233  0.77200  1.0000
  H   H70       1.0  0.08681  0.79885  0.76979  1.0000
  H   H71       1.0  0.09276  0.70040  0.75779  1.0000
  H   H72       1.0  0.14262  0.70349  0.76364  1.0000
  H   H73       1.0  0.04941  0.72434  0.74921  1.0000
  H   H74       1.0  0.27808  0.82806  0.89396  1.0000
  H   H75       1.0  0.27310  0.88771  0.85820  1.0000
  H   H76       1.0  0.17693  0.90025  0.57986  1.0000
  H   H77       1.0  0.18121  0.84259  0.59410  1.0000
  H   H78       1.0  0.19909  0.94672  0.64307  1.0000
  H   H79       1.0  0.28508  0.08104  0.76014  1.0000
  H   H80       1.0  0.21586  0.32057  0.80913  1.0000
  H   H81       1.0  0.20467  0.37796  0.78236  1.0000
  H   H82       1.0  0.28172  0.40065  0.70176  1.0000
  H   H83       1.0  0.29107  0.34480  0.70116  1.0000
  H   H84       1.0  0.21341  0.43279  0.72648  1.0000
  H   H85       1.0  0.28405  0.69356  0.75855  1.0000
  H   H86       1.0  0.28922  0.63766  0.75177  1.0000
  H   H87       1.0  0.20149  0.63060  0.70186  1.0000
  H   H88       1.0  0.19622  0.68706  0.71319  1.0000
  H   H89       1.0  0.48372  0.33683  0.78274  1.0000
  H   H90       1.0  0.48308  0.24256  0.71491  1.0000
  N   N31       1.0  0.71250  0.28760  0.80508  1.0000
  N   N32       1.0  0.70732  0.23796  0.77741  1.0000
  N   N33       1.0  0.78675  0.73011  0.75339  1.0000
  N   N34       1.0  0.78770  0.78220  0.74816  1.0000
  N   N35       1.0  0.92937  0.77308  0.73785  1.0000
  N   N36       1.0  0.56507  0.29243  0.76875  1.0000
  N   N37       1.0  0.74655  0.57744  0.72009  1.0000
  N   N38       1.0  0.75889  0.07347  0.74189  1.0000
  N   N39       1.0  0.72749  0.94915  0.73485  1.0000
  N   N40       1.0  0.74817  0.44570  0.74417  1.0000
  C   C142      1.0  0.73818  0.27621  0.80154  1.0000
  C   C143      1.0  0.76244  0.29158  0.79727  1.0000
  C   C144      1.0  0.78411  0.27120  0.79296  1.0000
  C   C145      1.0  0.73454  0.24445  0.78706  1.0000
  C   C146      1.0  0.75702  0.22419  0.78639  1.0000
  C   C147      1.0  0.78184  0.23907  0.79169  1.0000
  C   C148      1.0  0.69508  0.26315  0.79510  1.0000
  C   C149      1.0  0.76022  0.74271  0.74095  1.0000
  C   C150      1.0  0.73512  0.72752  0.73279  1.0000
  C   C151      1.0  0.76026  0.77617  0.73510  1.0000
  C   C152      1.0  0.71200  0.78084  0.71102  1.0000
  C   C153      1.0  0.80264  0.75430  0.75513  1.0000
  C   C154      1.0  0.73631  0.79674  0.71729  1.0000
  C   C155      1.0  0.71153  0.74802  0.71858  1.0000
  C   C156      1.0  0.76466  0.32596  0.78944  1.0000
  C   C157      1.0  0.73321  0.69335  0.73604  1.0000
  C   C158      1.0  0.72901  0.59267  0.75843  1.0000
  C   C159      1.0  0.75492  0.19026  0.78564  1.0000
  C   C160      1.0  0.57744  0.27154  0.72858  1.0000
  C   C161      1.0  0.75003  0.04309  0.73782  1.0000
  C   C162      1.0  0.77153  0.01730  0.77075  1.0000
  C   C163      1.0  0.76472  0.98618  0.77314  1.0000
  C   C164      1.0  0.73577  0.97991  0.73691  1.0000
  C   C165      1.0  0.71416  0.00571  0.70296  1.0000
  C   C166      1.0  0.72097  0.03685  0.70061  1.0000
  C   C167      1.0  0.75032  0.12439  0.79097  1.0000
  C   C168      1.0  0.91278  0.75096  0.71125  1.0000
  C   C169      1.0  0.77487  0.17237  0.75479  1.0000
  C   C170      1.0  0.77274  0.14018  0.75704  1.0000
  C   C171      1.0  0.73072  0.14188  0.82377  1.0000
  C   C172      1.0  0.73280  0.17395  0.82111  1.0000
  C   C173      1.0  0.74058  0.93250  0.67680  1.0000
  C   C174      1.0  0.74539  0.09137  0.79195  1.0000
  C   C175      1.0  0.79114  0.33857  0.81355  1.0000
  C   C176      1.0  0.79237  0.37186  0.79298  1.0000
  C   C177      1.0  0.76756  0.39394  0.75473  1.0000
  C   C178      1.0  0.74122  0.38156  0.73327  1.0000
  C   C179      1.0  0.73974  0.34888  0.74632  1.0000
  C   C180      1.0  0.76911  0.42819  0.74272  1.0000
  C   C181      1.0  0.71062  0.67693  0.76456  1.0000
  C   C182      1.0  0.70924  0.64448  0.77048  1.0000
  C   C183      1.0  0.73016  0.62697  0.74653  1.0000
  C   C184      1.0  0.75256  0.64325  0.71651  1.0000
  C   C185      1.0  0.75407  0.67555  0.71202  1.0000
  C   C186      1.0  0.53684  0.29038  0.75951  1.0000
  C   C187      1.0  0.52268  0.31672  0.77600  1.0000
  C   C188      1.0  0.52189  0.26349  0.74008  1.0000
  H   H91       1.0  0.71241  0.30297  0.87471  1.0000
  H   H92       1.0  0.79543  0.80344  0.75299  1.0000
  H   H93       1.0  0.80355  0.28095  0.78796  1.0000
  H   H94       1.0  0.80013  0.22523  0.79280  1.0000
  H   H95       1.0  0.69226  0.79496  0.69405  1.0000
  H   H96       1.0  0.69140  0.73833  0.70852  1.0000
  H   H97       1.0  0.71299  0.58060  0.80501  1.0000
  H   H98       1.0  0.56615  0.25256  0.67918  1.0000
  H   H99       1.0  0.79368  0.02244  0.79569  1.0000
  H   H100      1.0  0.78203  0.96639  0.80444  1.0000
  H   H101      1.0  0.69187  0.00076  0.67504  1.0000
  H   H102      1.0  0.70364  0.05674  0.66857  1.0000
  H   H103      1.0  0.91854  0.72996  0.67849  1.0000
  H   H104      1.0  0.79182  0.18430  0.72263  1.0000
  H   H105      1.0  0.78783  0.12710  0.72897  1.0000
  H   H106      1.0  0.71358  0.12980  0.85268  1.0000
  H   H107      1.0  0.71718  0.18692  0.84508  1.0000
  H   H108      1.0  0.75567  0.94343  0.61741  1.0000
  H   H109      1.0  0.72863  0.08222  0.83931  1.0000
  H   H110      1.0  0.81107  0.32221  0.84735  1.0000
  H   H111      1.0  0.81299  0.38094  0.80925  1.0000
  H   H112      1.0  0.72194  0.39865  0.70250  1.0000
  H   H113      1.0  0.71812  0.34174  0.71188  1.0000
  H   H114      1.0  0.78899  0.43744  0.73726  1.0000
  H   H115      1.0  0.69450  0.68920  0.78856  1.0000
  H   H116      1.0  0.69204  0.63208  0.79716  1.0000
  H   H117      1.0  0.76885  0.62979  0.69881  1.0000
  H   H118      1.0  0.77167  0.68758  0.69095  1.0000
  H   H119      1.0  0.53417  0.33732  0.79257  1.0000
  H   H120      1.0  0.53203  0.24256  0.72808  1.0000
  C  Sn1       1.0  0.98845  0.74620  0.66500  1.0000
  C   C189      1.0  0.00665  0.77000  0.68635  1.0000
  C  Sn2       1.0  0.00123  0.79401  0.75198  1.0000
  C  Sn3       1.0  0.97714  0.79424  0.79734  1.0000
  C   C190      1.0  0.95896  0.77045  0.77602  1.0000
  C  Sn4       1.0  0.96436  0.74643  0.71036  1.0000
  O  Te1       1.0  0.99428  0.72243  0.59918  1.0000
  O  Te2       1.0  0.01972  0.81755  0.77210  1.0000
  O  Te3       1.0  0.97132  0.81804  0.86320  1.0000
  O  Te4       1.0  0.94589  0.72290  0.69027  1.0000
  Mg  Mg1       1.0  0.00277  0.84489  0.86699  1.0000
  Mg  Mg2       1.0  0.96283  0.69554  0.59550  1.0000
  C  Sn5       1.0  0.48030  0.34158  0.21891  1.0000
  C   C191      1.0  0.46115  0.31892  0.18850  1.0000
  C  Sn6       1.0  0.47189  0.28717  0.20720  1.0000
  C  Sn7       1.0  0.50242  0.27786  0.25747  1.0000
  C   C192      1.0  0.52155  0.30051  0.28789  1.0000
  C  Sn8       1.0  0.51083  0.33228  0.26918  1.0000
  O  Te5       1.0  0.46908  0.37319  0.19944  1.0000
  O  Te6       1.0  0.45232  0.26494  0.17601  1.0000
  O  Te7       1.0  0.51363  0.24622  0.27692  1.0000
  O  Te8       1.0  0.53038  0.35449  0.30038  1.0000
  Mg  Mg3       1.0  0.47820  0.22473  0.21986  1.0000
  Mg  Mg4       1.0  0.50453  0.39470  0.25667  1.0000
  C  Sn9       1.0  0.27015  0.50725  0.73731  1.0000
  C   C193      1.0  0.25376  0.48217  0.77099  1.0000
  C  Sn10      1.0  0.22538  0.49048  0.75177  1.0000
  C  Sn11      1.0  0.21312  0.52459  0.69763  1.0000
  C   C194      1.0  0.22951  0.54966  0.66395  1.0000
  C  Sn12      1.0  0.25789  0.54136  0.68317  1.0000
  O  Te9       1.0  0.29848  0.49836  0.75738  1.0000
  O  Te10      1.0  0.20942  0.46496  0.78627  1.0000
  O  Te11      1.0  0.18477  0.53347  0.67759  1.0000
  O  Te12      1.0  0.27385  0.56686  0.64868  1.0000
  Mg  Mg5       1.0  0.17172  0.48970  0.74009  1.0000
  Mg  Mg6       1.0  0.31154  0.54216  0.69470  1.0000
  C  Sn13      1.0  0.38338  0.22758  0.86542  1.0000
  C   C195      1.0  0.36502  0.25302  0.85926  1.0000
  C  Sn14      1.0  0.36956  0.28621  0.80412  1.0000
  C  Sn15      1.0  0.39292  0.29416  0.75396  1.0000
  C   C196      1.0  0.41126  0.26874  0.76010  1.0000
  C  Sn16      1.0  0.40675  0.23553  0.81526  1.0000
  O  Te13      1.0  0.37844  0.19457  0.92096  1.0000
  O  Te14      1.0  0.35092  0.31121  0.79913  1.0000
  O  Te15      1.0  0.39786  0.32721  0.69840  1.0000
  O  Te16      1.0  0.42536  0.21055  0.82023  1.0000
  Mg  Mg7       1.0  0.36655  0.35244  0.71398  1.0000
  Mg  Mg8       1.0  0.40975  0.16931  0.90525  1.0000
  C  Sn17      1.0  0.74184  0.87426  0.12100  1.0000
  C   C197      1.0  0.76524  0.84710  0.19535  1.0000
  C  Sn18      1.0  0.79481  0.84708  0.32390  1.0000
  C  Sn19      1.0  0.80112  0.87477  0.37942  1.0000
  C   C198      1.0  0.77773  0.90190  0.30512  1.0000
  C  Sn20      1.0  0.74815  0.90195  0.17652  1.0000
  O  Te17      1.0  0.78412  0.80472  0.99269  1.0000
  O  Te18      1.0  0.81783  0.81965  0.39625  1.0000
  O  Te19      1.0  0.83054  0.87526  0.50784  1.0000
  O  Te20      1.0  0.72514  0.92936  0.10423  1.0000
  Mg  Mg9       1.0  0.85420  0.83203  0.56708  1.0000
  Mg  Mg10      1.0  0.76042  0.84796  0.93348  1.0000
  C  Sn21      1.0  0.74995  0.88108  0.57160  1.0000
  C   C199      1.0  0.73529  0.89865  0.63320  1.0000
  C  Sn22      1.0  0.72163  0.88173  0.74657  1.0000
  C  Sn23      1.0  0.72266  0.84650  0.79959  1.0000
  C   C200      1.0  0.73732  0.82895  0.73803  1.0000
  C  Sn24      1.0  0.75098  0.84586  0.62461  1.0000
  O  Te21      1.0  0.76345  0.89852  0.45836  1.0000
  O  Te22      1.0  0.70709  0.89983  0.80636  1.0000
  O  Te23      1.0  0.70914  0.82907  0.91291  1.0000
  O  Te24      1.0  0.76551  0.82777  0.56487  1.0000
  Mg  Mg11      1.0  0.69207  0.86482  0.95884  1.0000
  Mg  Mg12      1.0  0.78056  0.86275  0.41248  1.0000
  C  Sn25      1.0  0.37683  0.30912  0.33540  1.0000
  C   C201      1.0  0.39520  0.28451  0.33555  1.0000
  C  Sn26      1.0  0.38401  0.25751  0.29188  1.0000
  C  Sn27      1.0  0.35384  0.25506  0.24700  1.0000
  C   C202      1.0  0.33549  0.27966  0.24683  1.0000
  C  Sn28      1.0  0.34666  0.30667  0.29052  1.0000
  O  Te25      1.0  0.38849  0.33590  0.37948  1.0000
  O  Te26      1.0  0.40281  0.23322  0.29302  1.0000
  O  Te27      1.0  0.34219  0.22826  0.20291  1.0000
  O  Te28      1.0  0.32788  0.33096  0.28936  1.0000
  Mg  Mg13      1.0  0.37657  0.20149  0.22326  1.0000
  Mg  Mg14      1.0  0.35408  0.36271  0.35899  1.0000
  C  Sn29      1.0  0.62987  0.23560  0.79141  1.0000
  C   C203      1.0  0.61341  0.26069  0.80064  1.0000
  C  Sn30      1.0  0.62249  0.29143  0.78854  1.0000
  C  Sn31      1.0  0.64856  0.29722  0.76662  1.0000
  C   C204      1.0  0.66500  0.27214  0.75737  1.0000
  C  Sn32      1.0  0.65594  0.24139  0.76950  1.0000
  O  Te29      1.0  0.62038  0.20506  0.80380  1.0000
  O  Te30      1.0  0.60567  0.31613  0.79818  1.0000
  O  Te31      1.0  0.65804  0.32778  0.75424  1.0000
  O  Te32      1.0  0.67274  0.21670  0.75983  1.0000
  Mg  Mg15      1.0  0.62766  0.35361  0.77454  1.0000
  Mg  Mg16      1.0  0.65076  0.17922  0.78335  1.0000
  C  Sn33      1.0  0.87298  0.77603  0.81610  1.0000
  C   C205      1.0  0.88666  0.75223  0.78237  1.0000
  C  Sn34      1.0  0.87062  0.72983  0.71073  1.0000
  C  Sn35      1.0  0.84025  0.73125  0.67188  1.0000
  C   C206      1.0  0.82659  0.75504  0.70557  1.0000
  C  Sn36      1.0  0.84262  0.77745  0.77724  1.0000
  O  Te33      1.0  0.88945  0.79817  0.88774  1.0000
  O  Te34      1.0  0.88478  0.70625  0.67823  1.0000
  O  Te35      1.0  0.82379  0.70908  0.60018  1.0000
  O  Te36      1.0  0.82846  0.80102  0.80970  1.0000
  Mg  Mg17      1.0  0.85295  0.68148  0.57945  1.0000
  Mg  Mg18      1.0  0.86027  0.82581  0.90838  1.0000
  C  Sn37      1.0  0.29185  0.14800  0.77479  1.0000
  C   C207      1.0  0.27026  0.12819  0.77460  1.0000
  C  Sn38      1.0  0.24102  0.14305  0.71636  1.0000
  C  Sn39      1.0  0.23318  0.17847  0.65695  1.0000
  C   C208      1.0  0.25475  0.19826  0.65713  1.0000
  C  Sn40      1.0  0.28401  0.18341  0.71538  1.0000
  O  Te37      1.0  0.32094  0.13259  0.83357  1.0000
  O  Te38      1.0  0.21984  0.12273  0.71746  1.0000
  O  Te39      1.0  0.20406  0.19386  0.59815  1.0000
  O  Te40      1.0  0.30518  0.20372  0.71427  1.0000
  Mg  Mg19      1.0  0.18314  0.15549  0.62465  1.0000
  Mg  Mg20      1.0  0.34188  0.17099  0.80694  1.0000
  C  Sn41      1.0  0.78481  0.00896  0.30046  1.0000
  C   C209      1.0  0.76389  0.98815  0.29794  1.0000
  C  Sn42      1.0  0.73550  0.00076  0.26457  1.0000
  C  Sn43      1.0  0.72783  0.03490  0.23292  1.0000
  C   C210      1.0  0.74874  0.05570  0.23541  1.0000
  C  Sn44      1.0  0.77715  0.04310  0.26881  1.0000
  O  Te41      1.0  0.81307  0.99582  0.33410  1.0000
  O  Te42      1.0  0.69965  0.97946  0.26280  1.0000
  O  Te43      1.0  0.69955  0.04804  0.19927  1.0000
  O  Te44      1.0  0.79767  0.06438  0.27056  1.0000
  Mg  Mg21      1.0  0.67930  0.00909  0.21065  1.0000
  Mg  Mg22      1.0  0.83333  0.03479  0.32258  1.0000
  C  Sn45      1.0  0.70610  0.16390  0.22032  1.0000
  C   C211      1.0  0.72757  0.14228  0.22488  1.0000
  C  Sn46      1.0  0.75659  0.14839  0.27486  1.0000
  C  Sn47      1.0  0.76433  0.17670  0.32138  1.0000
  C   C212      1.0  0.74288  0.19830  0.31684  1.0000
  C  Sn48      1.0  0.71384  0.19221  0.26684  1.0000
  O  Te45      1.0  0.67722  0.15730  0.16996  1.0000
  O  Te46      1.0  0.77767  0.12642  0.27834  1.0000
  O  Te47      1.0  0.79324  0.18329  0.37175  1.0000
  O  Te48      1.0  0.69278  0.21416  0.26337  1.0000
  Mg  Mg23      1.0  0.81408  0.14605  0.35600  1.0000
  Mg  Mg24      1.0  0.65637  0.19455  0.18584  1.0000
  C  Sn49      1.0  0.12523  0.79191  0.18343  1.0000
  C   C213      1.0  0.11274  0.76304  0.20399  1.0000
  C  Sn50      1.0  0.13023  0.73155  0.26733  1.0000
  C  Sn51      1.0  0.16085  0.72886  0.31115  1.0000
  C   C214      1.0  0.17333  0.75772  0.29061  1.0000
  C  Sn52      1.0  0.15585  0.78922  0.22725  1.0000
  O  Te49      1.0  0.10732  0.82313  0.11990  1.0000
  O  Te50      1.0  0.11724  0.70305  0.28670  1.0000
  O  Te51      1.0  0.17875  0.69761  0.37471  1.0000
  O  Te52      1.0  0.16883  0.81771  0.20790  1.0000
  Mg  Mg25      1.0  0.15082  0.66611  0.37830  1.0000
  Mg  Mg26      1.0  0.13527  0.85465  0.11642  1.0000
  C  Sn53      1.0  0.27693  0.88540  0.20220  1.0000
  C   C215      1.0  0.25959  0.90116  0.25622  1.0000
  C  Sn54      1.0  0.24542  0.88227  0.36038  1.0000
  C  Sn55      1.0  0.24865  0.84689  0.41175  1.0000
  C   C216      1.0  0.26598  0.83114  0.35777  1.0000
  C  Sn56      1.0  0.28016  0.85001  0.25357  1.0000
  O  Te53      1.0  0.29089  0.90477  0.09812  1.0000
  O  Te54      1.0  0.22820  0.89860  0.41269  1.0000
  O  Te55      1.0  0.23466  0.82751  0.51591  1.0000
  O  Te56      1.0  0.29738  0.83370  0.20130  1.0000
  Mg  Mg27      1.0  0.21357  0.86129  0.55399  1.0000
  Mg  Mg28      1.0  0.31202  0.87098  0.06010  1.0000
  C  Sn57      1.0  0.71764  0.50546  0.67163  1.0000
  C   C217      1.0  0.74124  0.48551  0.68526  1.0000
  C  Sn58      1.0  0.76943  0.49424  0.73913  1.0000
  C  Sn59      1.0  0.77415  0.52349  0.78036  1.0000
  C   C218      1.0  0.75056  0.54341  0.76675  1.0000
  C  Sn60      1.0  0.72236  0.53471  0.71285  1.0000
  O  Te57      1.0  0.68964  0.49625  0.61752  1.0000
  O  Te58      1.0  0.79268  0.47391  0.75171  1.0000
  O  Te59      1.0  0.80218  0.53268  0.83449  1.0000
  O  Te60      1.0  0.69913  0.55501  0.70031  1.0000
  Mg  Mg29      1.0  0.82679  0.49693  0.83140  1.0000
  Mg  Mg30      1.0  0.66501  0.53201  0.62074  1.0000
  C  Sn61      1.0  0.21613  0.37453  0.34178  1.0000
  C   C219      1.0  0.23123  0.40018  0.29189  1.0000
  C  Sn62      1.0  0.24744  0.39839  0.19245  1.0000
  C  Sn63      1.0  0.24855  0.37041  0.14170  1.0000
  C   C220      1.0  0.23345  0.34479  0.19155  1.0000
  C  Sn64      1.0  0.21724  0.34655  0.29102  1.0000
  O  Te61      1.0  0.20006  0.37684  0.44118  1.0000
  O  Te62      1.0  0.26237  0.42433  0.14420  1.0000
  O  Te63      1.0  0.26464  0.36812  0.04222  1.0000
  O  Te64      1.0  0.20231  0.32064  0.33923  1.0000
  Mg  Mg31      1.0  0.28125  0.40976  0.00854  1.0000
  Mg  Mg32      1.0  0.18341  0.33519  0.47479  1.0000
  C  Sn65      1.0  0.23681  0.02334  0.29240  1.0000
  C   C221      1.0  0.25608  0.04623  0.30146  1.0000
  C  Sn66      1.0  0.28045  0.04195  0.26750  1.0000
  C  Sn67      1.0  0.28567  0.01423  0.22344  1.0000
  C   C222      1.0  0.26641  0.99137  0.21436  1.0000
  C  Sn68      1.0  0.24203  0.99563  0.24834  1.0000
  O  Te65      1.0  0.21259  0.02812  0.32686  1.0000
  O  Te66      1.0  0.29940  0.06515  0.27744  1.0000
  O  Te67      1.0  0.30992  0.00947  0.18898  1.0000
  O  Te68      1.0  0.20776  0.97245  0.23838  1.0000
  Mg  Mg33      1.0  0.32939  0.04787  0.21906  1.0000
  Mg  Mg34      1.0  0.19308  0.98971  0.29663  1.0000
  C  Sn69      1.0  0.21871  0.52247  0.13370  1.0000
  C   C223      1.0  0.24111  0.49768  0.16981  1.0000
  C  Sn70      1.0  0.27128  0.50038  0.25362  1.0000
  C  Sn71      1.0  0.27922  0.52844  0.30248  1.0000
  C   C224      1.0  0.25683  0.55320  0.26641  1.0000
  C  Sn72      1.0  0.22665  0.55052  0.18256  1.0000
  O  Te69      1.0  0.18869  0.51924  0.04981  1.0000
  O  Te70      1.0  0.29328  0.47529  0.28827  1.0000
  O  Te71      1.0  0.30927  0.53164  0.38643  1.0000
  O  Te72      1.0  0.20466  0.57559  0.14794  1.0000
  Mg  Mg35      1.0  0.33108  0.49094  0.40536  1.0000
  Mg  Mg36      1.0  0.16686  0.55996  0.03097  1.0000
