data_image0
_chemical_formula_structural       NC2BOCH4NC2BOCH4NC2BOCH3C6H5NC2BOCH4NC2BOCH4NC2BOCH3C6H5NC2BOCH4NC2BOCH4NC2BOCH4NC2BOCH4NC2BOCH3C6H5NC2BOCH3C6H5NC2BOCH4NC2BOCH4NC2BOCH3C6H5NC2BOCH3C6H5NC2BOCH3C6H5NC2BOCH4NC2BOCH3C6H5NC2BOCH3C6H5NC2BOCH3C6H5NC2BOCH3C6H5NC2BOCH3C6H5NC2BOCH3C6H5NC2BOCH4NC2BOCH4NC2BOCH4NC2BOCH3C6H5NC2BOCH3C6H5NC2BOCH4NC2BOCH4NC2BOCH4NC2BOCH3C6H5NC2BOCH4NC2BOCH4NC2BOCH3C6H5NC2BOCH4NC2BOCH4NC2BOCH3C6H5NC2BOCH3C6H5NC2BOCH3C6H5NC2BOCH3C6H5NC2BOCH4NC2BOCH4NC2BOCH3C6H5NC2BOCH4NC2BOCH3C6H5NC2BOCH3C6H5C24SnCSn2CSnTe4Mg2SnCSn2CSnTe4Mg2SnCSn2CSnTe4Mg2SnCSn2CSnTe4Mg2SnCSn2CSnTe4Mg2SnCSn2CSnTe4Mg2SnCSn2CSnTe4Mg2SnCSn2CSnTe4Mg2SnCSn2CSnTe4Mg2SnCSn2CSnTe4Mg2SnCSn2CSnTe4Mg2SnCSn2CSnTe4Mg2SnCSn2CSnTe4Mg2SnCSn2CSnTe4Mg2SnCSn2CSnTe4Mg2SnCSn2CSnTe4Mg2SnCSn2CSnTe4Mg2SnCSn2CSnTe4Mg2SnCSn2CSnTe4Mg2SnCSn2CSnTe4Mg2SnCSn2CSnTe4Mg2SnCSn2CSnTe4Mg2SnCSn2CSnTe4Mg2SnCSn2CSnTe4Mg2
_chemical_formula_sum              "N48 C360 B48 O48 H288 Sn96 Te96 Mg48"
_cell_length_a       40.8487
_cell_length_b       40.5784
_cell_length_c       40.5707
_cell_angle_alpha    90.247
_cell_angle_beta     90.2094
_cell_angle_gamma    90.1439

_symmetry_space_group_name_H-M    'P1'
_space_group_IT_number       1

loop_
  _space_group_symop_operation_xyz
  'x, y, z'

loop_
  _atom_site_type_symbol
  _atom_site_label
  _atom_site_symmetry_multiplicity
  _atom_site_fract_x
  _atom_site_fract_y
  _atom_site_fract_z
  _atom_site_occupancy
  N   N1        1.0  0.26724  0.33270  0.94162  1.0000
  C   C1        1.0  0.25200  0.30574  0.93518  1.0000
  C   C2        1.0  0.25917  0.35202  0.97115  1.0000
  B   B1        1.0  0.27839  0.22874  0.81601  1.0000
  O   O1        1.0  0.29409  0.80641  0.74170  1.0000
  C   C3        1.0  0.62448  0.47776  0.21233  1.0000
  H   H1        1.0  0.63984  0.48239  0.19066  1.0000
  H   H2        1.0  0.60909  0.45622  0.20665  1.0000
  H   H3        1.0  0.93484  0.52338  0.74575  1.0000
  H   H4        1.0  0.23275  0.29545  0.95110  1.0000
  N   N2        1.0  0.76607  0.83461  0.44036  1.0000
  C   C4        1.0  0.74637  0.81272  0.42881  1.0000
  C   C5        1.0  0.75690  0.85337  0.47001  1.0000
  B   B2        1.0  0.77899  0.73316  0.31316  1.0000
  O   O2        1.0  0.79175  0.30344  0.24324  1.0000
  C   C6        1.0  0.12345  0.97516  0.71214  1.0000
  H   H5        1.0  0.13925  0.98028  0.69091  1.0000
  H   H6        1.0  0.10845  0.95354  0.70573  1.0000
  H   H7        1.0  0.43500  0.02284  0.24486  1.0000
  H   H8        1.0  0.72266  0.80679  0.44025  1.0000
  N   N3        1.0  0.23449  0.66351  0.43907  1.0000
  C   C7        1.0  0.25188  0.68845  0.43060  1.0000
  C   C8        1.0  0.24278  0.64539  0.46929  1.0000
  B   B3        1.0  0.22530  0.76490  0.31146  1.0000
  O   O3        1.0  0.20471  0.19492  0.24029  1.0000
  C   C9        1.0  0.87474  0.52375  0.71361  1.0000
  H   H9        1.0  0.85903  0.51850  0.69217  1.0000
  H   H10       1.0  0.88954  0.54553  0.70755  1.0000
  H   H11       1.0  0.56487  0.48042  0.24445  1.0000
  C   C10       1.0  0.24672  0.29549  0.10238  1.0000
  C   C11       1.0  0.23188  0.25719  0.15844  1.0000
  C   C12       1.0  0.26755  0.26975  0.11213  1.0000
  C   C13       1.0  0.26011  0.25077  0.13968  1.0000
  C   C14       1.0  0.21859  0.30230  0.12113  1.0000
  C   C15       1.0  0.21143  0.28347  0.14870  1.0000
  H   H12       1.0  0.27287  0.69747  0.44520  1.0000
  H   H13       1.0  0.28951  0.26479  0.09781  1.0000
  H   H14       1.0  0.27618  0.23066  0.14688  1.0000
  H   H15       1.0  0.20298  0.32255  0.11337  1.0000
  H   H16       1.0  0.18964  0.28877  0.16312  1.0000
  N   N4        1.0  0.73543  0.16591  0.93666  1.0000
  C   C16       1.0  0.75242  0.19113  0.92829  1.0000
  C   C17       1.0  0.74344  0.14789  0.96695  1.0000
  B   B4        1.0  0.72335  0.26690  0.80956  1.0000
  O   O4        1.0  0.70877  0.69849  0.74501  1.0000
  C   C18       1.0  0.37491  0.02368  0.21250  1.0000
  H   H17       1.0  0.35955  0.01849  0.19079  1.0000
  H   H18       1.0  0.38954  0.04567  0.20685  1.0000
  H   H19       1.0  0.06323  0.97576  0.74362  1.0000
  H   H20       1.0  0.77300  0.20084  0.94307  1.0000
  N   N5        1.0  0.73193  0.83268  0.55912  1.0000
  C   C19       1.0  0.75167  0.81064  0.56993  1.0000
  C   C20       1.0  0.74115  0.85239  0.53027  1.0000
  B   B5        1.0  0.72306  0.73424  0.68839  1.0000
  O   O5        1.0  0.70762  0.30503  0.75492  1.0000
  C   C21       1.0  0.37557  0.97921  0.28724  1.0000
  H   H21       1.0  0.36035  0.98414  0.30897  1.0000
  H   H22       1.0  0.39083  0.95773  0.29302  1.0000
  H   H23       1.0  0.06285  0.01849  0.75318  1.0000
  H   H24       1.0  0.77537  0.80510  0.55826  1.0000
  N   N6        1.0  0.23500  0.33659  0.06156  1.0000
  C   C22       1.0  0.25451  0.31452  0.07270  1.0000
  C   C23       1.0  0.24409  0.35472  0.03163  1.0000
  B   B6        1.0  0.22282  0.23551  0.18840  1.0000
  O   O6        1.0  0.21122  0.80165  0.25525  1.0000
  C   C24       1.0  0.87581  0.47938  0.78842  1.0000
  H   H25       1.0  0.86069  0.48451  0.81017  1.0000
  H   H26       1.0  0.89084  0.45773  0.79418  1.0000
  H   H27       1.0  0.56630  0.52290  0.25482  1.0000
  C   C25       1.0  0.24511  0.70713  0.40035  1.0000
  C   C26       1.0  0.23280  0.74433  0.34273  1.0000
  C   C27       1.0  0.26527  0.73401  0.39215  1.0000
  C   C28       1.0  0.25923  0.75228  0.36372  1.0000
  C   C29       1.0  0.21874  0.69888  0.37944  1.0000
  C   C30       1.0  0.21277  0.71722  0.35122  1.0000
  H   H28       1.0  0.27792  0.30827  0.06080  1.0000
  H   H29       1.0  0.28568  0.74042  0.40832  1.0000
  H   H30       1.0  0.27498  0.77305  0.35766  1.0000
  H   H31       1.0  0.20338  0.67802  0.38612  1.0000
  H   H32       1.0  0.19224  0.71086  0.33523  1.0000
  N   N7        1.0  0.76670  0.16644  0.05796  1.0000
  C   C31       1.0  0.75176  0.19327  0.06521  1.0000
  C   C32       1.0  0.75836  0.14837  0.02762  1.0000
  B   B7        1.0  0.77608  0.26551  0.18798  1.0000
  O   O7        1.0  0.79671  0.69315  0.26018  1.0000
  C   C33       1.0  0.12185  0.01954  0.78735  1.0000
  H   H33       1.0  0.13664  0.01457  0.80944  1.0000
  H   H34       1.0  0.10675  0.04126  0.79276  1.0000
  H   H35       1.0  0.43480  0.98019  0.25424  1.0000
  H   H36       1.0  0.73307  0.20450  0.04921  1.0000
  N   N8        1.0  0.26712  0.66543  0.55943  1.0000
  C   C34       1.0  0.24865  0.68897  0.56932  1.0000
  C   C35       1.0  0.25808  0.64633  0.52985  1.0000
  B   B8        1.0  0.27714  0.76592  0.68850  1.0000
  O   O8        1.0  0.29052  0.19332  0.75832  1.0000
  C   C36       1.0  0.62571  0.52198  0.28771  1.0000
  H   H37       1.0  0.64075  0.51654  0.30951  1.0000
  H   H38       1.0  0.61122  0.54402  0.29350  1.0000
  H   H39       1.0  0.93526  0.48072  0.75514  1.0000
  H   H40       1.0  0.22622  0.69654  0.55623  1.0000
  N   N9        1.0  0.93962  0.26664  0.33388  1.0000
  C   C37       1.0  0.92825  0.24657  0.31214  1.0000
  C   C38       1.0  0.96916  0.25767  0.35262  1.0000
  B   B9        1.0  0.81056  0.27593  0.23549  1.0000
  O   O9        1.0  0.74194  0.29459  0.80185  1.0000
  C   C39       1.0  0.21289  0.62372  0.47747  1.0000
  H   H41       1.0  0.19145  0.63929  0.48222  1.0000
  H   H42       1.0  0.20703  0.60825  0.45594  1.0000
  H   H43       1.0  0.74477  0.93434  0.52363  1.0000
  H   H44       1.0  0.93987  0.22281  0.30613  1.0000
  N   N10       1.0  0.44319  0.76963  0.83183  1.0000
  C   C40       1.0  0.42746  0.74762  0.81532  1.0000
  C   C41       1.0  0.47117  0.75975  0.85247  1.0000
  B   B10       1.0  0.31267  0.77852  0.73477  1.0000
  O   O10       1.0  0.24485  0.79178  0.30311  1.0000
  C   C42       1.0  0.71332  0.12649  0.97491  1.0000
  H   H45       1.0  0.69204  0.14228  0.97973  1.0000
  H   H46       1.0  0.70738  0.11133  0.95320  1.0000
  H   H47       1.0  0.24785  0.43639  0.01965  1.0000
  H   H48       1.0  0.43414  0.72133  0.81526  1.0000
  N   N11       1.0  0.43697  0.23495  0.66602  1.0000
  C   C43       1.0  0.42871  0.25092  0.69205  1.0000
  C   C44       1.0  0.46716  0.24339  0.64839  1.0000
  B   B11       1.0  0.31030  0.22015  0.76658  1.0000
  O   O11       1.0  0.24197  0.20843  0.19668  1.0000
  C   C45       1.0  0.71167  0.87461  0.52233  1.0000
  H   H49       1.0  0.69017  0.85930  0.51653  1.0000
  H   H50       1.0  0.70561  0.88936  0.54424  1.0000
  H   H51       1.0  0.24481  0.56311  0.47977  1.0000
  C   C46       1.0  0.09752  0.24455  0.28960  1.0000
  C   C47       1.0  0.15471  0.23043  0.25305  1.0000
  C   C48       1.0  0.10688  0.26479  0.26320  1.0000
  C   C49       1.0  0.13509  0.25782  0.24522  1.0000
  C   C50       1.0  0.11713  0.21725  0.29779  1.0000
  C   C51       1.0  0.14515  0.21038  0.27974  1.0000
  H   H52       1.0  0.44356  0.27095  0.70285  1.0000
  H   H53       1.0  0.09185  0.28601  0.25689  1.0000
  H   H54       1.0  0.14213  0.27357  0.22478  1.0000
  H   H55       1.0  0.10959  0.20199  0.31841  1.0000
  H   H56       1.0  0.16011  0.18915  0.28605  1.0000
  N   N12       1.0  0.94212  0.73260  0.16715  1.0000
  C   C52       1.0  0.93294  0.75069  0.19141  1.0000
  C   C53       1.0  0.97122  0.74193  0.14804  1.0000
  B   B12       1.0  0.81582  0.72047  0.26827  1.0000
  O   O12       1.0  0.74184  0.70693  0.69679  1.0000
  C   C54       1.0  0.21472  0.37667  0.02282  1.0000
  H   H57       1.0  0.19299  0.36128  0.01831  1.0000
  H   H58       1.0  0.20922  0.39264  0.04402  1.0000
  H   H59       1.0  0.74452  0.06592  0.97634  1.0000
  C   C55       1.0  0.60082  0.74771  0.79260  1.0000
  C   C56       1.0  0.65808  0.73349  0.75638  1.0000
  C   C57       1.0  0.60994  0.76756  0.76583  1.0000
  C   C58       1.0  0.63815  0.76047  0.74792  1.0000
  C   C59       1.0  0.62072  0.72085  0.80140  1.0000
  C   C60       1.0  0.64883  0.71394  0.78354  1.0000
  H   H60       1.0  0.94610  0.77313  0.19930  1.0000
  H   H61       1.0  0.59463  0.78844  0.75912  1.0000
  H   H62       1.0  0.64490  0.77578  0.72704  1.0000
  H   H63       1.0  0.61327  0.70587  0.82225  1.0000
  H   H64       1.0  0.66400  0.69298  0.79025  1.0000
  N   N13       1.0  0.56132  0.73680  0.83479  1.0000
  C   C61       1.0  0.57053  0.75488  0.81067  1.0000
  C   C62       1.0  0.53136  0.74488  0.85295  1.0000
  B   B13       1.0  0.68894  0.72491  0.73603  1.0000
  O   O13       1.0  0.75988  0.70601  0.30464  1.0000
  C   C63       1.0  0.28907  0.37419  0.97842  1.0000
  H   H65       1.0  0.31054  0.35893  0.98405  1.0000
  H   H66       1.0  0.29478  0.38833  0.95613  1.0000
  H   H67       1.0  0.75398  0.06600  0.01908  1.0000
  H   H68       1.0  0.55667  0.77643  0.80196  1.0000
  N   N14       1.0  0.05872  0.23422  0.33265  1.0000
  C   C64       1.0  0.06759  0.25207  0.30822  1.0000
  C   C65       1.0  0.02930  0.24269  0.35156  1.0000
  B   B14       1.0  0.18581  0.22242  0.23281  1.0000
  O   O14       1.0  0.25976  0.20097  0.80828  1.0000
  C   C66       1.0  0.78660  0.87505  0.47897  1.0000
  H   H69       1.0  0.80787  0.85937  0.48421  1.0000
  H   H70       1.0  0.79286  0.89022  0.45753  1.0000
  H   H71       1.0  0.25412  0.56442  0.52254  1.0000
  H   H72       1.0  0.05392  0.27389  0.29982  1.0000
  N   N15       1.0  0.06158  0.76623  0.16535  1.0000
  C   C67       1.0  0.06944  0.75038  0.19150  1.0000
  C   C68       1.0  0.03118  0.75802  0.14766  1.0000
  B   B15       1.0  0.19093  0.77547  0.26399  1.0000
  O   O15       1.0  0.25796  0.79304  0.69659  1.0000
  C   C69       1.0  0.78757  0.12565  0.02004  1.0000
  H   H73       1.0  0.80950  0.14049  0.01501  1.0000
  H   H74       1.0  0.79279  0.11080  0.04201  1.0000
  H   H75       1.0  0.25732  0.43441  0.97705  1.0000
  C   C70       1.0  0.39872  0.75588  0.79509  1.0000
  C   C71       1.0  0.34309  0.77040  0.75615  1.0000
  C   C72       1.0  0.38451  0.73154  0.77479  1.0000
  C   C73       1.0  0.35738  0.73888  0.75521  1.0000
  C   C74       1.0  0.38478  0.78758  0.79598  1.0000
  C   C75       1.0  0.35720  0.79447  0.77711  1.0000
  H   H76       1.0  0.05385  0.73115  0.20240  1.0000
  H   H77       1.0  0.39497  0.70687  0.77444  1.0000
  H   H78       1.0  0.34677  0.72006  0.73921  1.0000
  H   H79       1.0  0.39602  0.80605  0.81193  1.0000
  H   H80       1.0  0.34619  0.81886  0.77822  1.0000
  N   N16       1.0  0.55671  0.26940  0.66699  1.0000
  C   C76       1.0  0.56544  0.25290  0.69243  1.0000
  C   C77       1.0  0.52701  0.25982  0.64875  1.0000
  B   B16       1.0  0.68777  0.27841  0.76339  1.0000
  O   O16       1.0  0.75687  0.29251  0.19646  1.0000
  C   C78       1.0  0.28745  0.62389  0.52217  1.0000
  H   H81       1.0  0.30917  0.63896  0.51693  1.0000
  H   H82       1.0  0.29309  0.60905  0.54404  1.0000
  H   H83       1.0  0.75451  0.93557  0.48107  1.0000
  C   C79       1.0  0.89828  0.25397  0.29346  1.0000
  C   C80       1.0  0.84116  0.26757  0.25647  1.0000
  C   C81       1.0  0.88732  0.23181  0.26904  1.0000
  C   C82       1.0  0.85923  0.23865  0.25069  1.0000
  C   C83       1.0  0.88030  0.28291  0.29952  1.0000
  C   C84       1.0  0.85215  0.28942  0.28140  1.0000
  H   H84       1.0  0.55110  0.23216  0.70229  1.0000
  H   H85       1.0  0.90111  0.20931  0.26452  1.0000
  H   H86       1.0  0.85107  0.22157  0.23159  1.0000
  H   H87       1.0  0.88914  0.29970  0.31857  1.0000
  H   H88       1.0  0.83829  0.31180  0.28612  1.0000
  N   N17       1.0  0.33495  0.94125  0.26638  1.0000
  C   C85       1.0  0.31240  0.93043  0.24705  1.0000
  C   C86       1.0  0.35358  0.97098  0.25743  1.0000
  B   B17       1.0  0.23754  0.81063  0.27536  1.0000
  O   O17       1.0  0.80691  0.74024  0.29489  1.0000
  C   C87       1.0  0.47587  0.21301  0.62729  1.0000
  H   H89       1.0  0.48113  0.19192  0.64335  1.0000
  H   H90       1.0  0.45445  0.20637  0.61221  1.0000
  H   H91       1.0  0.52152  0.74622  0.93512  1.0000
  C   C88       1.0  0.71153  0.59659  0.25786  1.0000
  C   C89       1.0  0.74867  0.65409  0.27090  1.0000
  C   C90       1.0  0.73937  0.60392  0.23897  1.0000
  C   C91       1.0  0.75765  0.63231  0.24539  1.0000
  C   C92       1.0  0.70230  0.61823  0.28338  1.0000
  C   C93       1.0  0.72066  0.64642  0.28973  1.0000
  H   H92       1.0  0.30552  0.94269  0.22385  1.0000
  H   H93       1.0  0.74640  0.58720  0.21916  1.0000
  H   H94       1.0  0.77922  0.63781  0.23072  1.0000
  H   H95       1.0  0.68062  0.61214  0.29764  1.0000
  H   H96       1.0  0.71356  0.66299  0.30960  1.0000
  N   N18       1.0  0.83439  0.44189  0.76759  1.0000
  C   C94       1.0  0.81351  0.43044  0.74675  1.0000
  C   C95       1.0  0.85367  0.47121  0.75871  1.0000
  B   B18       1.0  0.73443  0.31363  0.77442  1.0000
  O   O18       1.0  0.30346  0.23832  0.79492  1.0000
  C   C96       1.0  0.97908  0.71244  0.12540  1.0000
  H   H97       1.0  0.98440  0.69061  0.14039  1.0000
  H   H98       1.0  0.95731  0.70670  0.11042  1.0000
  H   H99       1.0  0.02246  0.24502  0.43345  1.0000
  H   H100      1.0  0.80887  0.44181  0.72256  1.0000
  N   N19       1.0  0.66459  0.43930  0.23324  1.0000
  C   C97       1.0  0.68745  0.42924  0.25247  1.0000
  C   C98       1.0  0.64628  0.46921  0.24215  1.0000
  B   B19       1.0  0.76485  0.31178  0.22383  1.0000
  O   O19       1.0  0.19499  0.24267  0.20679  1.0000
  C   C99       1.0  0.52338  0.71461  0.87426  1.0000
  H   H101      1.0  0.51854  0.69315  0.85836  1.0000
  H   H102      1.0  0.54497  0.70876  0.88932  1.0000
  H   H103      1.0  0.47708  0.24367  0.56624  1.0000
  C   C100      1.0  0.29133  0.10012  0.24419  1.0000
  C   C101      1.0  0.25381  0.15706  0.23061  1.0000
  C   C102      1.0  0.26500  0.10898  0.26463  1.0000
  C   C103      1.0  0.24647  0.13698  0.25783  1.0000
  C   C104      1.0  0.29894  0.12009  0.21694  1.0000
  C   C105      1.0  0.28049  0.14806  0.21042  1.0000
  H   H104      1.0  0.69446  0.44217  0.27539  1.0000
  H   H105      1.0  0.25919  0.09371  0.28586  1.0000
  H   H106      1.0  0.22594  0.14352  0.27355  1.0000
  H   H107      1.0  0.31942  0.11293  0.20141  1.0000
  H   H108      1.0  0.28630  0.16332  0.18922  1.0000
  N   N20       1.0  0.16377  0.93781  0.73389  1.0000
  C   C106      1.0  0.18588  0.92770  0.75394  1.0000
  C   C107      1.0  0.14455  0.96708  0.74251  1.0000
  B   B20       1.0  0.26633  0.81334  0.72304  1.0000
  O   O20       1.0  0.69664  0.74316  0.70814  1.0000
  C   C108      1.0  0.02184  0.21273  0.37350  1.0000
  H   H109      1.0  0.01681  0.19099  0.35805  1.0000
  H   H110      1.0  0.04362  0.20715  0.38840  1.0000
  H   H111      1.0  0.97900  0.74554  0.06579  1.0000
  C   C109      1.0  0.79386  0.60219  0.74814  1.0000
  C   C110      1.0  0.75562  0.65834  0.73376  1.0000
  C   C111      1.0  0.76983  0.61310  0.77038  1.0000
  C   C112      1.0  0.75080  0.64066  0.76313  1.0000
  C   C113      1.0  0.79887  0.61977  0.71872  1.0000
  C   C114      1.0  0.78010  0.64739  0.71183  1.0000
  H   H112      1.0  0.19156  0.94008  0.77751  1.0000
  H   H113      1.0  0.76609  0.59978  0.79332  1.0000
  H   H114      1.0  0.73196  0.64877  0.78024  1.0000
  H   H115      1.0  0.81770  0.61111  0.70192  1.0000
  H   H116      1.0  0.78401  0.66100  0.68911  1.0000
  N   N21       1.0  0.83372  0.56081  0.73493  1.0000
  C   C115      1.0  0.81330  0.57271  0.75577  1.0000
  C   C116      1.0  0.85329  0.53175  0.74373  1.0000
  B   B21       1.0  0.73479  0.68896  0.72510  1.0000
  O   O21       1.0  0.30383  0.75820  0.70844  1.0000
  C   C117      1.0  0.97740  0.28738  0.37486  1.0000
  H   H117      1.0  0.98202  0.30921  0.35962  1.0000
  H   H118      1.0  0.95599  0.29286  0.39022  1.0000
  H   H119      1.0  0.02126  0.75570  0.06562  1.0000
  C   C118      1.0  0.20561  0.89851  0.74636  1.0000
  C   C119      1.0  0.24486  0.84348  0.73145  1.0000
  C   C120      1.0  0.23149  0.88964  0.76740  1.0000
  C   C121      1.0  0.25102  0.86254  0.75986  1.0000
  C   C122      1.0  0.19920  0.87954  0.71791  1.0000
  C   C123      1.0  0.21853  0.85241  0.71071  1.0000
  H   H120      1.0  0.80904  0.56192  0.78029  1.0000
  H   H121      1.0  0.23619  0.90423  0.78953  1.0000
  H   H122      1.0  0.27123  0.85576  0.77599  1.0000
  H   H123      1.0  0.17888  0.88687  0.70217  1.0000
  H   H124      1.0  0.21355  0.83771  0.68875  1.0000
  N   N22       1.0  0.33453  0.06128  0.23380  1.0000
  C   C124      1.0  0.31013  0.07016  0.25155  1.0000
  C   C125      1.0  0.35313  0.03152  0.24240  1.0000
  B   B22       1.0  0.23290  0.18782  0.22244  1.0000
  O   O22       1.0  0.80205  0.25659  0.20835  1.0000
  C   C126      1.0  0.47874  0.78925  0.87529  1.0000
  H   H125      1.0  0.48366  0.81122  0.86038  1.0000
  H   H126      1.0  0.45715  0.79464  0.89045  1.0000
  H   H127      1.0  0.51925  0.25415  0.56678  1.0000
  C   C127      1.0  0.70638  0.39936  0.24526  1.0000
  C   C128      1.0  0.74401  0.34255  0.23193  1.0000
  C   C129      1.0  0.73208  0.39023  0.26646  1.0000
  C   C130      1.0  0.75070  0.36224  0.25981  1.0000
  C   C131      1.0  0.69941  0.37974  0.21738  1.0000
  C   C132      1.0  0.71794  0.35181  0.21098  1.0000
  H   H128      1.0  0.30168  0.05625  0.27320  1.0000
  H   H129      1.0  0.73735  0.40536  0.28809  1.0000
  H   H130      1.0  0.77068  0.35539  0.27621  1.0000
  H   H131      1.0  0.67936  0.38713  0.20134  1.0000
  H   H132      1.0  0.71256  0.33664  0.18943  1.0000
  N   N23       1.0  0.16417  0.05629  0.76803  1.0000
  C   C133      1.0  0.18475  0.06829  0.74747  1.0000
  C   C134      1.0  0.14444  0.02749  0.75817  1.0000
  B   B23       1.0  0.26547  0.18336  0.77931  1.0000
  O   O23       1.0  0.69652  0.25854  0.78991  1.0000
  C   C135      1.0  0.02249  0.78803  0.12617  1.0000
  H   H133      1.0  0.01724  0.80948  0.14189  1.0000
  H   H134      1.0  0.04383  0.79437  0.11106  1.0000
  H   H135      1.0  0.98009  0.25448  0.43492  1.0000
  C   C136      1.0  0.79402  0.40083  0.75372  1.0000
  C   C137      1.0  0.75558  0.34432  0.76651  1.0000
  C   C138      1.0  0.76933  0.39095  0.73151  1.0000
  C   C139      1.0  0.75021  0.36320  0.73798  1.0000
  C   C140      1.0  0.79958  0.38210  0.78232  1.0000
  C   C141      1.0  0.78075  0.35426  0.78841  1.0000
  H   H136      1.0  0.18858  0.05790  0.72264  1.0000
  H   H137      1.0  0.76517  0.40534  0.70929  1.0000
  H   H138      1.0  0.73087  0.35593  0.72090  1.0000
  H   H139      1.0  0.81887  0.39008  0.79913  1.0000
  H   H140      1.0  0.78516  0.33975  0.81048  1.0000
  N   N24       1.0  0.66671  0.55924  0.26676  1.0000
  C   C142      1.0  0.69266  0.56653  0.25061  1.0000
  C   C143      1.0  0.64788  0.52959  0.25803  1.0000
  B   B24       1.0  0.76905  0.68545  0.27867  1.0000
  O   O24       1.0  0.19840  0.75684  0.29175  1.0000
  C   C144      1.0  0.51879  0.28879  0.62580  1.0000
  H   H141      1.0  0.51313  0.31084  0.64050  1.0000
  H   H142      1.0  0.54054  0.29452  0.61103  1.0000
  H   H143      1.0  0.47908  0.75540  0.93445  1.0000
  C   C145      1.0  0.29402  0.90012  0.25438  1.0000
  C   C146      1.0  0.25798  0.84190  0.26741  1.0000
  C   C147      1.0  0.26936  0.88937  0.23255  1.0000
  C   C148      1.0  0.25157  0.86074  0.23903  1.0000
  C   C149      1.0  0.30068  0.88144  0.28280  1.0000
  C   C150      1.0  0.28300  0.85284  0.28903  1.0000
  H   H144      1.0  0.70237  0.55118  0.23046  1.0000
  H   H145      1.0  0.26421  0.90374  0.21052  1.0000
  H   H146      1.0  0.23240  0.85277  0.22207  1.0000
  H   H147      1.0  0.31984  0.89010  0.29945  1.0000
  H   H148      1.0  0.28825  0.83852  0.31104  1.0000
  N   N25       1.0  0.58349  0.51846  0.19119  1.0000
  C   C151      1.0  0.56437  0.49745  0.17728  1.0000
  C   C152      1.0  0.60333  0.50826  0.21971  1.0000
  B   B25       1.0  0.48303  0.53032  0.06323  1.0000
  O   O25       1.0  0.05666  0.54286  0.99277  1.0000
  C   C153      1.0  0.72746  0.87594  0.46284  1.0000
  H   H149      1.0  0.73292  0.89166  0.44157  1.0000
  H   H150      1.0  0.70575  0.86118  0.45643  1.0000
  H   H151      1.0  0.77299  0.18542  0.99247  1.0000
  H   H152      1.0  0.56177  0.47177  0.18569  1.0000
  N   N26       1.0  0.08425  0.01303  0.68815  1.0000
  C   C154      1.0  0.05675  0.99927  0.68127  1.0000
  C   C155      1.0  0.10120  0.00500  0.71898  1.0000
  B   B26       1.0  0.98489  0.02545  0.55962  1.0000
  O   O26       1.0  0.55329  0.04247  0.49481  1.0000
  C   C156      1.0  0.22965  0.37424  0.96312  1.0000
  H   H153      1.0  0.23468  0.38867  0.94086  1.0000
  H   H154      1.0  0.20796  0.35898  0.95798  1.0000
  H   H155      1.0  0.27212  0.68334  0.49443  1.0000
  H   H156      1.0  0.04432  0.98195  0.69788  1.0000
  N   N27       1.0  0.91535  0.48539  0.69056  1.0000
  C   C157      1.0  0.93864  0.50418  0.68075  1.0000
  C   C158      1.0  0.89712  0.49405  0.72052  1.0000
  B   B27       1.0  0.01387  0.47481  0.56196  1.0000
  O   O27       1.0  0.44284  0.45223  0.48688  1.0000
  C   C159      1.0  0.77270  0.12499  0.96013  1.0000
  H   H157      1.0  0.76747  0.10941  0.93853  1.0000
  H   H158      1.0  0.79453  0.13973  0.95437  1.0000
  H   H159      1.0  0.72744  0.81539  0.49415  1.0000
  H   H160      1.0  0.94634  0.52663  0.69408  1.0000
  N   N28       1.0  0.41677  0.98521  0.19039  1.0000
  C   C160      1.0  0.43690  0.00642  0.17862  1.0000
  C   C161      1.0  0.39719  0.99399  0.21953  1.0000
  B   B28       1.0  0.51504  0.97804  0.06142  1.0000
  O   O28       1.0  0.94637  0.95835  0.99338  1.0000
  C   C162      1.0  0.27214  0.62261  0.46236  1.0000
  H   H161      1.0  0.26669  0.60690  0.44089  1.0000
  H   H162      1.0  0.29389  0.63733  0.45634  1.0000
  H   H163      1.0  0.22982  0.31575  0.99813  1.0000
  C   C163      1.0  0.03861  0.99295  0.84788  1.0000
  C   C164      1.0  0.00208  0.97962  0.90529  1.0000
  C   C165      1.0  0.01409  0.01484  0.85833  1.0000
  C   C166      1.0  0.99596  0.00815  0.88660  1.0000
  C   C167      1.0  0.04473  0.96423  0.86624  1.0000
  C   C168      1.0  0.02678  0.95785  0.89450  1.0000
  H   H164      1.0  0.44069  0.03108  0.18951  1.0000
  H   H165      1.0  0.00946  0.03708  0.84410  1.0000
  H   H166      1.0  0.97689  0.02511  0.89448  1.0000
  H   H167      1.0  0.06377  0.94763  0.85766  1.0000
  H   H168      1.0  0.03154  0.93568  0.90872  1.0000
  N   N29       1.0  0.08031  0.98079  0.80829  1.0000
  C   C169      1.0  0.05778  0.00034  0.81826  1.0000
  C   C170      1.0  0.09989  0.98966  0.77935  1.0000
  B   B29       1.0  0.98225  0.97196  0.93682  1.0000
  O   O29       1.0  0.55216  0.96169  0.00649  1.0000
  C   C171      1.0  0.22806  0.62456  0.53726  1.0000
  H   H169      1.0  0.23281  0.60962  0.55927  1.0000
  H   H170      1.0  0.20666  0.64002  0.54260  1.0000
  H   H171      1.0  0.27221  0.31555  0.00775  1.0000
  C   C172      1.0  0.45654  0.99923  0.14916  1.0000
  C   C173      1.0  0.49446  0.98607  0.09243  1.0000
  C   C174      1.0  0.47989  0.02221  0.13819  1.0000
  C   C175      1.0  0.49874  0.01557  0.11034  1.0000
  C   C176      1.0  0.45225  0.96956  0.13152  1.0000
  C   C177      1.0  0.47081  0.96329  0.10360  1.0000
  H   H172      1.0  0.05160  0.02362  0.80581  1.0000
  H   H173      1.0  0.48323  0.04523  0.15173  1.0000
  H   H174      1.0  0.51697  0.03331  0.10213  1.0000
  H   H175      1.0  0.43409  0.95209  0.14041  1.0000
  H   H176      1.0  0.46731  0.94040  0.08994  1.0000
  N   N30       1.0  0.58407  0.48408  0.30968  1.0000
  C   C178      1.0  0.56052  0.50270  0.31912  1.0000
  C   C179      1.0  0.60288  0.49260  0.28011  1.0000
  B   B30       1.0  0.48372  0.47260  0.43644  1.0000
  O   O30       1.0  0.05219  0.45825  0.50809  1.0000
  C   C180      1.0  0.72819  0.12669  0.03472  1.0000
  H   H177      1.0  0.73274  0.11152  0.05660  1.0000
  H   H178      1.0  0.70695  0.14233  0.04019  1.0000
  H   H179      1.0  0.76966  0.81471  0.50445  1.0000
  H   H180      1.0  0.55299  0.52509  0.30585  1.0000
  N   N31       1.0  0.41526  0.01732  0.31074  1.0000
  C   C181      1.0  0.44204  0.00242  0.31785  1.0000
  C   C182      1.0  0.39756  0.00926  0.28017  1.0000
  B   B31       1.0  0.51421  0.02568  0.44075  1.0000
  O   O31       1.0  0.94652  0.04149  0.50509  1.0000
  C   C183      1.0  0.27401  0.37696  0.03813  1.0000
  H   H181      1.0  0.26917  0.39333  0.05918  1.0000
  H   H182      1.0  0.29550  0.36207  0.04459  1.0000
  H   H183      1.0  0.22974  0.68397  0.50381  1.0000
  H   H184      1.0  0.45358  0.98423  0.30140  1.0000
  N   N32       1.0  0.91727  0.51807  0.81050  1.0000
  C   C184      1.0  0.93954  0.49817  0.82050  1.0000
  C   C185      1.0  0.89785  0.50934  0.78109  1.0000
  B   B32       1.0  0.01776  0.52526  0.93867  1.0000
  O   O32       1.0  0.44498  0.54646  0.00845  1.0000
  C   C186      1.0  0.77097  0.87440  0.53839  1.0000
  H   H185      1.0  0.76582  0.88942  0.56035  1.0000
  H   H186      1.0  0.79242  0.85915  0.54409  1.0000
  H   H187      1.0  0.73048  0.18641  0.00139  1.0000
  H   H188      1.0  0.94546  0.47499  0.80761  1.0000
  N   N33       1.0  0.51495  0.19018  0.58686  1.0000
  C   C187      1.0  0.49522  0.17865  0.56494  1.0000
  C   C188      1.0  0.50566  0.22005  0.60524  1.0000
  B   B33       1.0  0.52502  0.06044  0.48808  1.0000
  O   O33       1.0  0.54071  0.99838  0.05171  1.0000
  C   C189      1.0  0.87555  0.46405  0.72872  1.0000
  H   H189      1.0  0.89113  0.44262  0.73383  1.0000
  H   H190      1.0  0.86064  0.45792  0.70696  1.0000
  H   H191      1.0  0.18139  0.99228  0.77280  1.0000
  C   C190      1.0  0.50757  0.84988  0.96111  1.0000
  C   C191      1.0  0.51951  0.90893  0.99651  1.0000
  C   C192      1.0  0.48887  0.85780  0.98906  1.0000
  C   C193      1.0  0.49470  0.88698  0.00642  1.0000
  C   C194      1.0  0.53237  0.87171  0.95096  1.0000
  C   C195      1.0  0.53822  0.90063  0.96847  1.0000
  H   H192      1.0  0.47167  0.19034  0.55875  1.0000
  H   H193      1.0  0.46970  0.84093  0.99699  1.0000
  H   H194      1.0  0.48008  0.89300  0.02799  1.0000
  H   H195      1.0  0.54658  0.86515  0.92929  1.0000
  H   H196      1.0  0.55756  0.91732  0.96063  1.0000
  N   N34       1.0  0.01752  0.69094  0.08365  1.0000
  C   C196      1.0  0.99793  0.67987  0.06142  1.0000
  C   C197      1.0  0.00848  0.72021  0.10305  1.0000
  B   B34       1.0  0.02904  0.56143  0.98507  1.0000
  O   O34       1.0  0.04179  0.49323  0.55477  1.0000
  C   C198      1.0  0.37550  0.96394  0.22738  1.0000
  H   H197      1.0  0.39101  0.94241  0.23223  1.0000
  H   H198      1.0  0.36038  0.95804  0.20567  1.0000
  H   H199      1.0  0.68459  0.49359  0.27136  1.0000
  H   H200      1.0  0.97442  0.69168  0.05528  1.0000
  N   N35       1.0  0.48439  0.69190  0.91514  1.0000
  C   C199      1.0  0.50425  0.68084  0.93700  1.0000
  C   C200      1.0  0.49348  0.72134  0.89623  1.0000
  B   B35       1.0  0.47185  0.56596  0.01694  1.0000
  O   O35       1.0  0.45656  0.49147  0.44493  1.0000
  C   C201      1.0  0.12173  0.95976  0.77168  1.0000
  H   H201      1.0  0.10632  0.93825  0.76591  1.0000
  H   H202      1.0  0.13607  0.95369  0.79379  1.0000
  H   H203      1.0  0.81573  0.49633  0.73017  1.0000
  H   H204      1.0  0.52806  0.69242  0.94265  1.0000
  N   N36       1.0  0.98439  0.18931  0.41408  1.0000
  C   C202      1.0  0.00126  0.18082  0.43936  1.0000
  C   C203      1.0  0.99248  0.21963  0.39622  1.0000
  B   B36       1.0  0.97460  0.05978  0.51227  1.0000
  O   O36       1.0  0.95583  0.99172  0.94543  1.0000
  C   C204      1.0  0.62404  0.46231  0.27189  1.0000
  H   H205      1.0  0.60822  0.44097  0.26661  1.0000
  H   H206      1.0  0.63884  0.45612  0.29365  1.0000
  H   H207      1.0  0.31560  0.99606  0.22882  1.0000
  C   C205      1.0  0.99361  0.84927  0.04204  1.0000
  C   C206      1.0  0.97969  0.90626  0.00457  1.0000
  C   C207      1.0  0.01392  0.85842  0.01568  1.0000
  C   C208      1.0  0.00695  0.88642  0.99713  1.0000
  C   C209      1.0  0.96613  0.86879  0.04943  1.0000
  C   C210      1.0  0.95941  0.89676  0.03101  1.0000
  H   H208      1.0  0.02172  0.19561  0.44928  1.0000
  H   H209      1.0  0.03526  0.84345  0.00989  1.0000
  H   H210      1.0  0.02274  0.89327  0.97671  1.0000
  H   H211      1.0  0.95063  0.86136  0.06984  1.0000
  H   H212      1.0  0.93815  0.91179  0.03683  1.0000
  N   N37       1.0  0.98349  0.81025  0.08545  1.0000
  C   C211      1.0  0.00129  0.81955  0.06117  1.0000
  C   C212      1.0  0.99263  0.78052  0.10398  1.0000
  B   B37       1.0  0.97198  0.93764  0.98433  1.0000
  O   O37       1.0  0.95604  0.00830  0.55313  1.0000
  C   C213      1.0  0.62611  0.53743  0.22800  1.0000
  H   H213      1.0  0.61147  0.55956  0.23290  1.0000
  H   H214      1.0  0.64159  0.54277  0.20656  1.0000
  H   H215      1.0  0.31599  0.00564  0.27153  1.0000
  H   H216      1.0  0.02331  0.80617  0.05308  1.0000
  N   N38       1.0  0.48057  0.30879  0.58301  1.0000
  C   C214      1.0  0.50030  0.31871  0.56056  1.0000
  C   C215      1.0  0.48954  0.28023  0.60329  1.0000
  B   B38       1.0  0.47124  0.43453  0.48031  1.0000
  O   O38       1.0  0.45661  0.51047  0.05410  1.0000
  C   C216      1.0  0.12308  0.03482  0.72770  1.0000
  H   H217      1.0  0.10786  0.05660  0.73253  1.0000
  H   H218      1.0  0.13839  0.04042  0.70624  1.0000
  H   H219      1.0  0.81611  0.50614  0.77281  1.0000
  H   H220      1.0  0.52381  0.30656  0.55522  1.0000
  N   N39       1.0  0.01653  0.30960  0.41608  1.0000
  C   C217      1.0  0.99640  0.32075  0.43760  1.0000
  C   C218      1.0  0.00753  0.28025  0.39655  1.0000
  B   B39       1.0  0.02467  0.43936  0.51527  1.0000
  O   O39       1.0  0.04527  0.50673  0.94667  1.0000
  C   C219      1.0  0.37545  0.03896  0.27227  1.0000
  H   H221      1.0  0.39050  0.06081  0.26716  1.0000
  H   H222      1.0  0.36054  0.04466  0.29402  1.0000
  H   H223      1.0  0.68460  0.50326  0.22876  1.0000
  C   C220      1.0  0.00571  0.64989  0.04253  1.0000
  C   C221      1.0  0.02037  0.59249  0.00563  1.0000
  C   C222      1.0  0.98481  0.63937  0.01694  1.0000
  C   C223      1.0  0.99215  0.61115  0.99867  1.0000
  C   C224      1.0  0.03392  0.63136  0.04975  1.0000
  C   C225      1.0  0.04098  0.60316  0.03162  1.0000
  H   H224      1.0  0.97264  0.30901  0.44288  1.0000
  H   H225      1.0  0.96288  0.65357  0.01141  1.0000
  H   H226      1.0  0.97600  0.60333  0.97870  1.0000
  H   H227      1.0  0.04969  0.63984  0.06973  1.0000
  H   H228      1.0  0.06284  0.58894  0.03729  1.0000
  N   N40       1.0  0.51631  0.81196  0.91638  1.0000
  C   C226      1.0  0.50086  0.81915  0.94291  1.0000
  C   C227      1.0  0.50831  0.78191  0.89779  1.0000
  B   B40       1.0  0.52662  0.94112  0.01595  1.0000
  O   O40       1.0  0.54205  0.00734  0.44818  1.0000
  C   C228      1.0  0.87584  0.53911  0.77341  1.0000
  H   H229      1.0  0.89109  0.56080  0.76816  1.0000
  H   H230      1.0  0.86133  0.54490  0.79542  1.0000
  H   H231      1.0  0.18266  0.00220  0.73030  1.0000
  C   C229      1.0  0.50264  0.14848  0.54629  1.0000
  C   C230      1.0  0.51635  0.09095  0.50935  1.0000
  C   C231      1.0  0.48072  0.13740  0.52179  1.0000
  C   C232      1.0  0.48759  0.10909  0.50350  1.0000
  C   C233      1.0  0.53135  0.13037  0.55249  1.0000
  C   C234      1.0  0.53792  0.10205  0.53435  1.0000
  H   H232      1.0  0.48172  0.80332  0.95355  1.0000
  H   H233      1.0  0.45842  0.15132  0.51712  1.0000
  H   H234      1.0  0.47070  0.10084  0.48434  1.0000
  H   H235      1.0  0.54796  0.13926  0.57159  1.0000
  H   H236      1.0  0.56013  0.08808  0.53911  1.0000
  N   N41       1.0  0.18997  0.58378  0.51651  1.0000
  C   C235      1.0  0.18074  0.55903  0.49897  1.0000
  C   C236      1.0  0.21987  0.60197  0.50774  1.0000
  B   B41       1.0  0.06107  0.48505  0.52770  1.0000
  O   O41       1.0  0.99486  0.05025  0.53824  1.0000
  C   C237      1.0  0.46408  0.72935  0.87385  1.0000
  H   H237      1.0  0.44231  0.73378  0.88904  1.0000
  H   H238      1.0  0.45899  0.70754  0.85855  1.0000
  H   H239      1.0  0.99694  0.77019  0.18648  1.0000
  C   C238      1.0  0.84922  0.95704  0.50511  1.0000
  C   C239      1.0  0.90627  0.99474  0.51767  1.0000
  C   C240      1.0  0.85962  0.98108  0.48254  1.0000
  C   C241      1.0  0.88768  0.99976  0.48884  1.0000
  C   C242      1.0  0.86772  0.95175  0.53395  1.0000
  C   C243      1.0  0.89579  0.97023  0.53993  1.0000
  H   H240      1.0  0.19454  0.54985  0.47753  1.0000
  H   H241      1.0  0.84546  0.98505  0.46010  1.0000
  H   H242      1.0  0.89547  0.01849  0.47139  1.0000
  H   H243      1.0  0.85936  0.93296  0.55103  1.0000
  H   H244      1.0  0.91009  0.96602  0.56219  1.0000
  N   N42       1.0  0.68996  0.08641  0.01358  1.0000
  C   C244      1.0  0.67946  0.06325  0.99467  1.0000
  C   C245      1.0  0.71993  0.10445  0.00499  1.0000
  B   B42       1.0  0.56008  0.98966  0.02484  1.0000
  O   O42       1.0  0.49028  0.55825  0.04478  1.0000
  C   C246      1.0  0.96240  0.22770  0.37474  1.0000
  H   H245      1.0  0.94117  0.23271  0.39053  1.0000
  H   H246      1.0  0.95636  0.20591  0.35971  1.0000
  H   H247      1.0  0.49183  0.27395  0.68588  1.0000
  C   C247      1.0  0.35135  0.45854  0.00346  1.0000
  C   C248      1.0  0.40699  0.49743  0.01822  1.0000
  C   C249      1.0  0.36087  0.48414  0.98229  1.0000
  C   C250      1.0  0.38824  0.50345  0.98971  1.0000
  C   C251      1.0  0.37004  0.45225  0.03197  1.0000
  C   C252      1.0  0.39743  0.47134  0.03905  1.0000
  H   H248      1.0  0.69218  0.05540  0.97205  1.0000
  H   H249      1.0  0.34653  0.48885  0.96012  1.0000
  H   H250      1.0  0.39538  0.52340  0.97337  1.0000
  H   H251      1.0  0.36231  0.43225  0.04797  1.0000
  H   H252      1.0  0.41190  0.46642  0.06106  1.0000
  N   N43       1.0  0.68943  0.91580  0.48479  1.0000
  C   C253      1.0  0.68221  0.94226  0.50058  1.0000
  C   C254      1.0  0.71928  0.89749  0.49309  1.0000
  B   B43       1.0  0.56193  0.01586  0.47489  1.0000
  O   O43       1.0  0.49174  0.44493  0.45505  1.0000
  C   C255      1.0  0.96340  0.77197  0.12629  1.0000
  H   H253      1.0  0.94162  0.76680  0.11116  1.0000
  H   H254      1.0  0.95772  0.79350  0.14174  1.0000
  H   H255      1.0  0.49655  0.73185  0.81431  1.0000
  H   H256      1.0  0.69775  0.95280  0.52021  1.0000
  N   N44       1.0  0.19289  0.41653  0.98270  1.0000
  C   C256      1.0  0.18291  0.43973  0.00173  1.0000
  C   C257      1.0  0.22206  0.39757  0.99213  1.0000
  B   B44       1.0  0.06487  0.51559  0.97351  1.0000
  O   O44       1.0  0.99036  0.94511  0.95651  1.0000
  C   C258      1.0  0.45979  0.27244  0.62515  1.0000
  H   H257      1.0  0.43843  0.26659  0.60966  1.0000
  H   H258      1.0  0.45363  0.29448  0.63967  1.0000
  H   H259      1.0  0.99359  0.22880  0.31430  1.0000
  H   H260      1.0  0.19560  0.44684  0.02472  1.0000
  N   N45       1.0  0.80913  0.08354  0.98172  1.0000
  C   C259      1.0  0.82009  0.06208  0.00210  1.0000
  C   C260      1.0  0.78010  0.10318  0.99022  1.0000
  B   B45       1.0  0.93754  0.98484  0.97352  1.0000
  O   O45       1.0  0.00958  0.55213  0.95838  1.0000
  C   C261      1.0  0.53492  0.22931  0.62744  1.0000
  H   H261      1.0  0.55658  0.23426  0.61227  1.0000
  H   H262      1.0  0.54088  0.20832  0.64337  1.0000
  H   H263      1.0  0.00312  0.27149  0.31420  1.0000
  C   C262      1.0  0.15314  0.45856  0.99434  1.0000
  C   C263      1.0  0.09595  0.49530  0.98133  1.0000
  C   C264      1.0  0.14335  0.48385  0.01593  1.0000
  C   C265      1.0  0.11517  0.50204  0.00942  1.0000
  C   C266      1.0  0.13404  0.45159  0.96619  1.0000
  C   C267      1.0  0.10587  0.46965  0.95998  1.0000
  H   H264      1.0  0.80823  0.05661  0.02583  1.0000
  H   H265      1.0  0.15808  0.48913  0.03777  1.0000
  H   H266      1.0  0.10772  0.52166  0.02613  1.0000
  H   H267      1.0  0.14200  0.43192  0.94981  1.0000
  H   H268      1.0  0.09102  0.46419  0.93829  1.0000
  N   N46       1.0  0.31001  0.58307  0.48463  1.0000
  C   C268      1.0  0.31612  0.55508  0.49787  1.0000
  C   C269      1.0  0.27996  0.60106  0.49261  1.0000
  B   B46       1.0  0.43560  0.48100  0.46980  1.0000
  O   O46       1.0  0.50508  0.05144  0.46160  1.0000
  C   C270      1.0  0.03835  0.72853  0.12477  1.0000
  H   H269      1.0  0.05952  0.73410  0.10912  1.0000
  H   H270      1.0  0.04474  0.70683  0.13953  1.0000
  H   H271      1.0  0.50630  0.77448  0.81545  1.0000
  H   H272      1.0  0.29945  0.54284  0.51524  1.0000
  N   N47       1.0  0.31164  0.41681  0.01575  1.0000
  C   C271      1.0  0.32189  0.43905  0.99589  1.0000
  C   C272      1.0  0.28215  0.39767  0.00750  1.0000
  B   B47       1.0  0.43718  0.51884  0.02711  1.0000
  O   O47       1.0  0.50806  0.94964  0.04334  1.0000
  C   C273      1.0  0.03671  0.27266  0.37385  1.0000
  H   H273      1.0  0.05872  0.26794  0.38871  1.0000
  H   H274      1.0  0.04182  0.29440  0.35864  1.0000
  H   H275      1.0  0.50173  0.23140  0.68694  1.0000
  C   C274      1.0  0.64900  0.04540  0.00203  1.0000
  C   C275      1.0  0.59093  0.01009  0.01603  1.0000
  C   C276      1.0  0.63827  0.01997  0.98094  1.0000
  C   C277      1.0  0.60970  0.00250  0.98796  1.0000
  C   C278      1.0  0.63032  0.05331  0.03007  1.0000
  C   C279      1.0  0.60177  0.03598  0.03678  1.0000
  H   H276      1.0  0.30956  0.44510  0.97248  1.0000
  H   H277      1.0  0.65263  0.01390  0.95916  1.0000
  H   H278      1.0  0.60172  0.98260  0.97173  1.0000
  H   H279      1.0  0.63907  0.07307  0.04607  1.0000
  H   H280      1.0  0.58749  0.04206  0.05856  1.0000
  N   N48       1.0  0.80846  0.91626  0.51843  1.0000
  C   C280      1.0  0.81953  0.93768  0.49809  1.0000
  C   C281      1.0  0.77927  0.89693  0.50911  1.0000
  B   B48       1.0  0.93731  0.01546  0.52533  1.0000
  O   O48       1.0  0.00501  0.44834  0.54177  1.0000
  C   C282      1.0  0.53818  0.77445  0.87594  1.0000
  H   H281      1.0  0.55967  0.76929  0.89142  1.0000
  H   H282      1.0  0.54391  0.79644  0.86133  1.0000
  H   H283      1.0  0.00664  0.72761  0.18473  1.0000
  C   C283      1.0  0.15040  0.54089  0.50627  1.0000
  C   C284      1.0  0.09241  0.50510  0.51976  1.0000
  C   C285      1.0  0.14053  0.51470  0.48567  1.0000
  C   C286      1.0  0.11195  0.49710  0.49234  1.0000
  C   C287      1.0  0.13092  0.54921  0.53362  1.0000
  C   C288      1.0  0.10248  0.53159  0.54014  1.0000
  H   H284      1.0  0.80777  0.94286  0.47417  1.0000
  H   H285      1.0  0.15551  0.50822  0.46446  1.0000
  H   H286      1.0  0.10456  0.47681  0.47631  1.0000
  H   H287      1.0  0.13893  0.56951  0.54931  1.0000
  H   H288      1.0  0.08759  0.53802  0.56140  1.0000
  C   C289      1.0  0.25071  0.66768  0.49929  1.0000
  C   C290      1.0  0.25131  0.33160  0.00216  1.0000
  C   C291      1.0  0.75138  0.16996  0.99711  1.0000
  C   C292      1.0  0.74878  0.83103  0.49964  1.0000
  C   C293      1.0  0.49688  0.25225  0.67045  1.0000
  C   C294      1.0  0.99881  0.25017  0.33022  1.0000
  C   C295      1.0  0.00160  0.74946  0.16965  1.0000
  C   C296      1.0  0.50153  0.75282  0.83085  1.0000
  C   C297      1.0  0.66873  0.49892  0.25012  1.0000
  C   C298      1.0  0.33166  0.00108  0.25005  1.0000
  C   C299      1.0  0.16614  0.99721  0.75102  1.0000
  C   C300      1.0  0.83180  0.50135  0.75139  1.0000
  C   C301      1.0  0.91918  0.50190  0.75057  1.0000
  C   C302      1.0  0.58145  0.50112  0.24989  1.0000
  C   C303      1.0  0.41903  0.00162  0.24985  1.0000
  C   C304      1.0  0.07889  0.99726  0.74860  1.0000
  C   C305      1.0  0.50060  0.75130  0.91882  1.0000
  C   C306      1.0  0.49791  0.24944  0.58249  1.0000
  C   C307      1.0  0.00069  0.24974  0.41822  1.0000
  C   C308      1.0  0.00030  0.75052  0.08169  1.0000
  C   C309      1.0  0.74935  0.91899  0.50177  1.0000
  C   C310      1.0  0.24972  0.57971  0.50069  1.0000
  C   C311      1.0  0.25235  0.41944  0.99897  1.0000
  C   C312      1.0  0.74956  0.08193  0.99769  1.0000
  C  Sn1       1.0  0.96215  0.54147  0.87090  1.0000
  C   C313      1.0  0.96422  0.51454  0.84942  1.0000
  C  Sn2       1.0  0.98093  0.48609  0.85884  1.0000
  C  Sn3       1.0  0.99588  0.48450  0.89040  1.0000
  C   C314      1.0  0.99381  0.51141  0.91186  1.0000
  C  Sn4       1.0  0.97710  0.53988  0.90246  1.0000
  O  Te1       1.0  0.94532  0.56966  0.86096  1.0000
  O  Te2       1.0  0.98267  0.45949  0.83693  1.0000
  O  Te3       1.0  0.01273  0.45628  0.90032  1.0000
  O  Te4       1.0  0.97536  0.56646  0.92434  1.0000
  Mg  Mg1       1.0  0.00834  0.42649  0.86178  1.0000
  Mg  Mg2       1.0  0.94969  0.59947  0.89953  1.0000
  C  Sn5       1.0  0.96758  0.10115  0.45404  1.0000
  C   C315      1.0  0.98438  0.08897  0.48145  1.0000
  C  Sn6       1.0  0.00570  0.10930  0.49932  1.0000
  C  Sn7       1.0  0.01030  0.14252  0.48960  1.0000
  C   C316      1.0  0.99351  0.15469  0.46221  1.0000
  C  Sn8       1.0  0.97219  0.13437  0.44432  1.0000
  O  Te5       1.0  0.94639  0.08038  0.43654  1.0000
  O  Te6       1.0  0.02223  0.09656  0.52663  1.0000
  O  Te7       1.0  0.03152  0.16329  0.50713  1.0000
  O  Te8       1.0  0.95566  0.14710  0.41704  1.0000
  Mg  Mg3       1.0  0.04847  0.13454  0.54255  1.0000
  Mg  Mg4       1.0  0.92939  0.10915  0.40111  1.0000
  C  Sn9       1.0  0.46389  0.60619  0.95819  1.0000
  C   C317      1.0  0.48186  0.59293  0.98431  1.0000
  C  Sn10      1.0  0.50689  0.61120  0.99928  1.0000
  C  Sn11      1.0  0.51409  0.64340  0.98792  1.0000
  C   C318      1.0  0.49612  0.65666  0.96182  1.0000
  C  Sn12      1.0  0.47109  0.63840  0.94683  1.0000
  O  Te9       1.0  0.43897  0.58749  0.94360  1.0000
  O  Te10      1.0  0.52089  0.59308  0.02535  1.0000
  O  Te11      1.0  0.53539  0.65779  0.00254  1.0000
  O  Te12      1.0  0.45346  0.65218  0.92078  1.0000
  Mg  Mg5       1.0  0.55251  0.62827  0.03724  1.0000
  Mg  Mg6       1.0  0.42182  0.61703  0.90888  1.0000
  C  Sn13      1.0  0.72239  0.19642  0.86497  1.0000
  C   C319      1.0  0.74658  0.20252  0.88869  1.0000
  C  Sn14      1.0  0.76244  0.23304  0.89002  1.0000
  C  Sn15      1.0  0.75394  0.25799  0.86718  1.0000
  C   C320      1.0  0.72976  0.25189  0.84349  1.0000
  C  Sn16      1.0  0.71388  0.22138  0.84214  1.0000
  O  Te13      1.0  0.70685  0.16574  0.86410  1.0000
  O  Te14      1.0  0.78655  0.23855  0.91394  1.0000
  O  Te15      1.0  0.76950  0.28869  0.86808  1.0000
  O  Te16      1.0  0.68978  0.21586  0.81823  1.0000
  Mg  Mg7       1.0  0.80073  0.28437  0.90522  1.0000
  Mg  Mg8       1.0  0.67558  0.17005  0.82695  1.0000
  C  Sn17      1.0  0.23899  0.74446  0.61005  1.0000
  C   C321      1.0  0.25692  0.71821  0.59700  1.0000
  C  Sn18      1.0  0.28069  0.70247  0.61608  1.0000
  C  Sn19      1.0  0.28666  0.71318  0.64888  1.0000
  C   C322      1.0  0.26873  0.73942  0.66191  1.0000
  C  Sn20      1.0  0.24496  0.75517  0.64285  1.0000
  O  Te17      1.0  0.21535  0.75983  0.59053  1.0000
  O  Te18      1.0  0.29831  0.67629  0.60249  1.0000
  O  Te19      1.0  0.31032  0.69779  0.66839  1.0000
  O  Te20      1.0  0.22734  0.78134  0.65642  1.0000
  Mg  Mg9       1.0  0.32795  0.66323  0.63885  1.0000
  Mg  Mg10      1.0  0.19769  0.79440  0.62009  1.0000
  C  Sn21      1.0  0.10955  0.74352  0.24769  1.0000
  C   C323      1.0  0.09818  0.75931  0.21935  1.0000
  C  Sn22      1.0  0.11945  0.77825  0.20026  1.0000
  C  Sn23      1.0  0.15277  0.78146  0.20970  1.0000
  C   C324      1.0  0.16412  0.76567  0.23803  1.0000
  C  Sn24      1.0  0.14287  0.74673  0.25713  1.0000
  O  Te21      1.0  0.08786  0.72471  0.26640  1.0000
  O  Te22      1.0  0.10751  0.79382  0.17203  1.0000
  O  Te23      1.0  0.17446  0.80029  0.19097  1.0000
  O  Te24      1.0  0.15479  0.73116  0.28534  1.0000
  Mg  Mg11      1.0  0.14659  0.81674  0.15460  1.0000
  Mg  Mg12      1.0  0.11574  0.70822  0.30278  1.0000
  C  Sn25      1.0  0.79482  0.21787  0.13774  1.0000
  C   C325      1.0  0.77861  0.24586  0.14940  1.0000
  C  Sn26      1.0  0.74886  0.25550  0.13543  1.0000
  C  Sn27      1.0  0.73499  0.23677  0.10926  1.0000
  C   C326      1.0  0.75119  0.20880  0.09762  1.0000
  C  Sn28      1.0  0.78095  0.19914  0.11158  1.0000
  O  Te25      1.0  0.82454  0.20869  0.15208  1.0000
  O  Te26      1.0  0.73312  0.28358  0.14749  1.0000
  O  Te27      1.0  0.70525  0.24598  0.09493  1.0000
  O  Te28      1.0  0.79668  0.17108  0.09953  1.0000
  Mg  Mg13      1.0  0.69313  0.28611  0.11991  1.0000
  Mg  Mg14      1.0  0.83666  0.16852  0.12710  1.0000
  C  Sn29      1.0  0.01012  0.98104  0.63316  1.0000
  C   C327      1.0  0.03891  0.99611  0.64437  1.0000
  C  Sn30      1.0  0.04763  0.02514  0.62983  1.0000
  C  Sn31      1.0  0.02969  0.03943  0.60355  1.0000
  C   C328      1.0  0.00092  0.02437  0.59236  1.0000
  C  Sn32      1.0  0.99219  0.99533  0.60688  1.0000
  O  Te29      1.0  0.99937  0.95203  0.64807  1.0000
  O  Te30      1.0  0.07648  0.03975  0.64145  1.0000
  O  Te31      1.0  0.04047  0.06847  0.58864  1.0000
  O  Te32      1.0  0.96335  0.98073  0.59528  1.0000
  Mg  Mg15      1.0  0.08115  0.07911  0.61316  1.0000
  Mg  Mg16      1.0  0.95865  0.94138  0.62355  1.0000
  C  Sn33      1.0  0.24664  0.24701  0.89786  1.0000
  C   C329      1.0  0.26202  0.27605  0.90832  1.0000
  C  Sn34      1.0  0.28124  0.29423  0.88650  1.0000
  C  Sn35      1.0  0.28515  0.28316  0.85354  1.0000
  C   C330      1.0  0.26977  0.25415  0.84310  1.0000
  C  Sn36      1.0  0.25055  0.23595  0.86491  1.0000
  O  Te33      1.0  0.22755  0.22923  0.92009  1.0000
  O  Te34      1.0  0.29638  0.32318  0.89752  1.0000
  O  Te35      1.0  0.30426  0.30097  0.83131  1.0000
  O  Te36      1.0  0.23541  0.20702  0.85390  1.0000
  Mg  Mg17      1.0  0.31993  0.33884  0.85798  1.0000
  Mg  Mg18      1.0  0.21184  0.19134  0.89341  1.0000
  C  Sn37      1.0  0.45609  0.04144  0.37458  1.0000
  C   C331      1.0  0.46275  0.01844  0.34978  1.0000
  C  Sn38      1.0  0.48668  0.99234  0.35568  1.0000
  C  Sn39      1.0  0.50175  0.98914  0.38705  1.0000
  C   C332      1.0  0.49259  0.01212  0.41184  1.0000
  C  Sn40      1.0  0.47117  0.03824  0.40595  1.0000
  O  Te37      1.0  0.43458  0.06734  0.36813  1.0000
  O  Te38      1.0  0.49296  0.96966  0.33049  1.0000
  O  Te39      1.0  0.52328  0.96321  0.39349  1.0000
  O  Te40      1.0  0.46488  0.06091  0.43112  1.0000
  Mg  Mg19      1.0  0.52403  0.93860  0.35127  1.0000
  Mg  Mg20      1.0  0.43380  0.09197  0.41038  1.0000
  C  Sn41      1.0  0.39651  0.54088  0.46700  1.0000
  C   C333      1.0  0.40675  0.51131  0.48120  1.0000
  C  Sn42      1.0  0.38483  0.49207  0.49921  1.0000
  C  Sn43      1.0  0.35198  0.50260  0.50310  1.0000
  C   C334      1.0  0.34175  0.53214  0.48891  1.0000
  C  Sn44      1.0  0.36366  0.55140  0.47089  1.0000
  O  Te41      1.0  0.41884  0.55971  0.44909  1.0000
  O  Te42      1.0  0.39565  0.46261  0.51319  1.0000
  O  Te43      1.0  0.32965  0.48373  0.52103  1.0000
  O  Te44      1.0  0.35286  0.58084  0.45692  1.0000
  Mg  Mg21      1.0  0.35604  0.44550  0.53536  1.0000
  Mg  Mg22      1.0  0.39244  0.59796  0.43472  1.0000
  C  Sn45      1.0  0.45577  0.36640  0.53600  1.0000
  C   C335      1.0  0.48326  0.34602  0.53470  1.0000
  C  Sn46      1.0  0.51137  0.35613  0.51800  1.0000
  C  Sn47      1.0  0.51202  0.38729  0.50230  1.0000
  C   C336      1.0  0.48454  0.40766  0.50361  1.0000
  C  Sn48      1.0  0.45642  0.39756  0.52029  1.0000
  O  Te45      1.0  0.42793  0.35579  0.55282  1.0000
  O  Te46      1.0  0.53855  0.33532  0.51704  1.0000
  O  Te47      1.0  0.53989  0.39789  0.48546  1.0000
  O  Te48      1.0  0.42926  0.41835  0.52127  1.0000
  Mg  Mg23      1.0  0.57074  0.36078  0.49106  1.0000
  Mg  Mg24      1.0  0.39706  0.39293  0.54725  1.0000
  C  Sn49      1.0  0.86825  0.70166  0.22370  1.0000
  C   C337      1.0  0.85429  0.72038  0.24897  1.0000
  C  Sn50      1.0  0.86356  0.75323  0.25371  1.0000
  C  Sn51      1.0  0.88726  0.76767  0.23275  1.0000
  C   C338      1.0  0.90120  0.74895  0.20750  1.0000
  C  Sn52      1.0  0.89195  0.71610  0.20274  1.0000
  O  Te49      1.0  0.85862  0.66887  0.21941  1.0000
  O  Te50      1.0  0.84926  0.77145  0.27915  1.0000
  O  Te51      1.0  0.89689  0.80048  0.23706  1.0000
  O  Te52      1.0  0.90623  0.69789  0.17732  1.0000
  Mg  Mg25      1.0  0.87040  0.81519  0.27512  1.0000
  Mg  Mg26      1.0  0.88510  0.65415  0.18131  1.0000
  C  Sn53      1.0  0.63523  0.29863  0.71936  1.0000
  C   C339      1.0  0.64881  0.28039  0.74513  1.0000
  C  Sn54      1.0  0.63716  0.24879  0.75205  1.0000
  C  Sn55      1.0  0.61141  0.23511  0.73280  1.0000
  C   C340      1.0  0.59785  0.25334  0.70704  1.0000
  C  Sn56      1.0  0.60948  0.28495  0.70011  1.0000
  O  Te53      1.0  0.64726  0.33018  0.71288  1.0000
  O  Te54      1.0  0.65111  0.23103  0.77795  1.0000
  O  Te55      1.0  0.59938  0.20353  0.73930  1.0000
  O  Te56      1.0  0.59554  0.30270  0.67422  1.0000
  Mg  Mg27      1.0  0.62635  0.18903  0.77715  1.0000
  Mg  Mg28      1.0  0.62029  0.34470  0.67498  1.0000
  C  Sn57      1.0  0.95518  0.46826  0.60238  1.0000
  C   C341      1.0  0.98235  0.48517  0.59014  1.0000
  C  Sn58      1.0  0.99948  0.50744  0.61015  1.0000
  C  Sn59      1.0  0.98925  0.51289  0.64309  1.0000
  C   C342      1.0  0.96210  0.49598  0.65532  1.0000
  C  Sn60      1.0  0.94495  0.47372  0.63532  1.0000
  O  Te57      1.0  0.93842  0.44611  0.58194  1.0000
  O  Te58      1.0  0.02657  0.52406  0.59736  1.0000
  O  Te59      1.0  0.00604  0.53506  0.66353  1.0000
  O  Te60      1.0  0.91788  0.45709  0.64810  1.0000
  Mg  Mg29      1.0  0.04143  0.55176  0.63484  1.0000
  Mg  Mg30      1.0  0.90302  0.42937  0.61064  1.0000
  C  Sn61      1.0  0.62958  0.96015  0.45832  1.0000
  C   C343      1.0  0.65227  0.96488  0.48378  1.0000
  C  Sn62      1.0  0.64427  0.98414  0.51119  1.0000
  C  Sn63      1.0  0.61294  0.99898  0.51321  1.0000
  C   C344      1.0  0.59027  0.99424  0.48776  1.0000
  C  Sn64      1.0  0.59825  0.97498  0.46034  1.0000
  O  Te61      1.0  0.63811  0.94079  0.43115  1.0000
  O  Te62      1.0  0.66736  0.98852  0.53633  1.0000
  O  Te63      1.0  0.60193  0.01835  0.54041  1.0000
  O  Te64      1.0  0.57518  0.97060  0.43521  1.0000
  Mg  Mg31      1.0  0.64173  0.01703  0.56835  1.0000
  Mg  Mg32      1.0  0.59828  0.94208  0.40319  1.0000
  C  Sn65      1.0  0.54158  0.46476  0.39559  1.0000
  C   C345      1.0  0.51547  0.48269  0.40865  1.0000
  C  Sn66      1.0  0.49975  0.50663  0.38972  1.0000
  C  Sn67      1.0  0.51033  0.51275  0.35705  1.0000
  C   C346      1.0  0.53643  0.49481  0.34401  1.0000
  C  Sn68      1.0  0.55217  0.47087  0.36292  1.0000
  O  Te65      1.0  0.55694  0.44094  0.41496  1.0000
  O  Te66      1.0  0.47370  0.52425  0.40331  1.0000
  O  Te67      1.0  0.49495  0.53658  0.33769  1.0000
  O  Te68      1.0  0.57820  0.45325  0.34935  1.0000
  Mg  Mg33      1.0  0.46060  0.55415  0.36717  1.0000
  Mg  Mg34      1.0  0.59130  0.42334  0.38545  1.0000
  C  Sn69      1.0  0.76814  0.75993  0.63913  1.0000
  C   C347      1.0  0.73980  0.76043  0.65831  1.0000
  C  Sn70      1.0  0.71116  0.77487  0.64628  1.0000
  C  Sn71      1.0  0.71085  0.78909  0.61440  1.0000
  C   C348      1.0  0.73918  0.78859  0.59524  1.0000
  C  Sn72      1.0  0.76783  0.77415  0.60726  1.0000
  O  Te69      1.0  0.79649  0.74536  0.65165  1.0000
  O  Te70      1.0  0.68313  0.77508  0.66591  1.0000
  O  Te71      1.0  0.68247  0.80367  0.60189  1.0000
  O  Te72      1.0  0.79584  0.77393  0.58764  1.0000
  Mg  Mg35      1.0  0.65050  0.79784  0.63795  1.0000
  Mg  Mg36      1.0  0.82848  0.75117  0.61556  1.0000
  C  Sn73      1.0  0.36603  0.21994  0.69615  1.0000
  C   C349      1.0  0.38916  0.24458  0.70269  1.0000
  C  Sn74      1.0  0.38971  0.26059  0.73324  1.0000
  C  Sn75      1.0  0.36669  0.25178  0.75777  1.0000
  C   C350      1.0  0.34358  0.22716  0.75124  1.0000
  C  Sn76      1.0  0.34300  0.21114  0.72069  1.0000
  O  Te73      1.0  0.36593  0.20427  0.66544  1.0000
  O  Te74      1.0  0.41306  0.28514  0.73919  1.0000
  O  Te75      1.0  0.36681  0.26748  0.78850  1.0000
  O  Te76      1.0  0.31968  0.18659  0.71473  1.0000
  Mg  Mg37      1.0  0.40337  0.29935  0.78487  1.0000
  Mg  Mg38      1.0  0.32936  0.17236  0.66908  1.0000
  C  Sn77      1.0  0.03426  0.39734  0.45760  1.0000
  C   C351      1.0  0.01575  0.41088  0.48317  1.0000
  C  Sn78      1.0  0.99132  0.39228  0.49838  1.0000
  C  Sn79      1.0  0.98527  0.35945  0.48781  1.0000
  C   C352      1.0  0.00377  0.34593  0.46226  1.0000
  C  Sn80      1.0  0.02821  0.36452  0.44703  1.0000
  O  Te77      1.0  0.05857  0.41639  0.44275  1.0000
  O  Te78      1.0  0.97312  0.40635  0.52389  1.0000
  O  Te79      1.0  0.96094  0.34041  0.50268  1.0000
  O  Te80      1.0  0.04640  0.35046  0.42154  1.0000
  Mg  Mg39      1.0  0.94269  0.37051  0.53641  1.0000
  Mg  Mg40      1.0  0.07685  0.38627  0.40901  1.0000
  C  Sn81      1.0  0.54014  0.54080  0.10519  1.0000
  C   C353      1.0  0.51566  0.52155  0.09050  1.0000
  C  Sn82      1.0  0.50259  0.49449  0.10710  1.0000
  C  Sn83      1.0  0.51421  0.48650  0.13906  1.0000
  C   C354      1.0  0.53868  0.50574  0.15373  1.0000
  C  Sn84      1.0  0.55177  0.53281  0.13715  1.0000
  O  Te81      1.0  0.55285  0.56775  0.08814  1.0000
  O  Te82      1.0  0.47813  0.47561  0.09191  1.0000
  O  Te83      1.0  0.50148  0.45952  0.15611  1.0000
  O  Te84      1.0  0.57620  0.55169  0.15232  1.0000
  Mg  Mg41      1.0  0.46851  0.44132  0.12509  1.0000
  Mg  Mg42      1.0  0.58583  0.58599  0.11918  1.0000
  C  Sn85      1.0  0.73211  0.75879  0.36091  1.0000
  C   C355      1.0  0.76026  0.76034  0.34149  1.0000
  C  Sn86      1.0  0.78797  0.77731  0.35271  1.0000
  C  Sn87      1.0  0.78754  0.79304  0.38399  1.0000
  C   C356      1.0  0.75940  0.79149  0.40338  1.0000
  C  Sn88      1.0  0.73168  0.77453  0.39219  1.0000
  O  Te85      1.0  0.70470  0.74169  0.34920  1.0000
  O  Te86      1.0  0.81582  0.77852  0.33286  1.0000
  O  Te87      1.0  0.81498  0.81015  0.39568  1.0000
  O  Te88      1.0  0.70385  0.77331  0.41202  1.0000
  Mg  Mg43      1.0  0.84706  0.80482  0.35962  1.0000
  Mg  Mg44      1.0  0.67260  0.74700  0.38529  1.0000
  C  Sn89      1.0  0.87926  0.99625  0.00907  1.0000
  C   C357      1.0  0.90417  0.00363  0.98236  1.0000
  C  Sn90      1.0  0.90088  0.03172  0.96260  1.0000
  C  Sn91      1.0  0.87836  0.05731  0.96970  1.0000
  C   C358      1.0  0.85710  0.05425  0.99640  1.0000
  C  Sn92      1.0  0.85424  0.02184  0.01617  1.0000
  O  Te89      1.0  0.88048  0.96795  0.02849  1.0000
  O  Te90      1.0  0.92238  0.03421  0.93602  1.0000
  O  Te91      1.0  0.87714  0.08562  0.95025  1.0000
  O  Te92      1.0  0.83275  0.01934  0.04274  1.0000
  Mg  Mg45      1.0  0.91138  0.07757  0.91679  1.0000
  Mg  Mg46      1.0  0.84624  0.97600  0.06199  1.0000
  C  Sn93      1.0  0.19762  0.12545  0.78590  1.0000
  C   C359      1.0  0.19852  0.10583  0.75752  1.0000
  C  Sn94      1.0  0.22501  0.10783  0.73594  1.0000
  C  Sn95      1.0  0.25115  0.12989  0.74287  1.0000
  C   C360      1.0  0.25025  0.14949  0.77123  1.0000
  C  Sn96      1.0  0.22376  0.14751  0.79283  1.0000
  O  Te93      1.0  0.17090  0.12304  0.80713  1.0000
  O  Te94      1.0  0.22536  0.08798  0.70772  1.0000
  O  Te95      1.0  0.27789  0.13229  0.72160  1.0000
  O  Te96      1.0  0.22341  0.16734  0.82103  1.0000
  Mg  Mg47      1.0  0.26714  0.10014  0.68634  1.0000
  Mg  Mg48      1.0  0.18165  0.15519  0.84243  1.0000
