data_image0
_chemical_formula_structural       NC2BOCH4NC2BOCH4NC2BOCH4NC2BOCH4NC2BOCH4NC2BOCH4NC2BOCH4NC2BOCH4NC2BOCH4NC2BOCH4NC2BOCH4NC2BOCH4NC2BOCH4NC2BOCH4NC2BOCH4NC2BOCH4NC2BOCH4NC2BOCH4NC2BOCH4NC2BOCH4NC2BOCH4NC2BOCH4NC2BOCH4NC2BOCH4NC2BOCH4NC2BOCH4NC2BOCH4NC2BOCH4NC2BOCH4NC2BOCH4NC2BOCH4NC2BOCH4NC2BOCH4NC2BOCH4NC2BOCH4NC2BOCH4NC2BOCH4NC2BOCH4NC2BOCH4NC2BOCH4NC2BOCH4NC2BOCH4NC2BOCH4NC2BOCH4NC2BOCH4NC2BOCH4NC2BOCH4NC2BOCH4C24SnCSn2CSnTe4Mg2SnCSn2CSnTe4Mg2SnCSn2CSnTe4Mg2SnCSn2CSnTe4Mg2SnCSn2CSnTe4Mg2SnCSn2CSnTe4Mg2SnCSn2CSnTe4Mg2SnCSn2CSnTe4Mg2SnCSn2CSnTe4Mg2SnCSn2CSnTe4Mg2SnCSn2CSnTe4Mg2SnCSn2CSnTe4Mg2SnCSn2CSnTe4Mg2SnCSn2CSnTe4Mg2SnCSn2CSnTe4Mg2SnCSn2CSnTe4Mg2SnCSn2CSnTe4Mg2SnCSn2CSnTe4Mg2SnCSn2CSnTe4Mg2SnCSn2CSnTe4Mg2SnCSn2CSnTe4Mg2SnCSn2CSnTe4Mg2SnCSn2CSnTe4Mg2SnCSn2CSnTe4Mg2SnCSn2CSnTe4Mg2SnCSn2CSnTe4Mg2SnCSn2CSnTe4Mg2SnCSn2CSnTe4Mg2SnCSn2CSnTe4Mg2SnCSn2CSnTe4Mg2SnCSn2CSnTe4Mg2SnCSn2CSnTe4Mg2SnCSn2CSnTe4Mg2SnCSn2CSnTe4Mg2SnCSn2CSnTe4Mg2SnCSn2CSnTe4Mg2SnCSn2CSnTe4Mg2SnCSn2CSnTe4Mg2SnCSn2CSnTe4Mg2SnCSn2CSnTe4Mg2SnCSn2CSnTe4Mg2SnCSn2CSnTe4Mg2SnCSn2CSnTe4Mg2SnCSn2CSnTe4Mg2SnCSn2CSnTe4Mg2SnCSn2CSnTe4Mg2SnCSn2CSnTe4Mg2SnCSn2CSnTe4Mg2
_chemical_formula_sum              "N48 C264 B48 O48 H192 Sn192 Te192 Mg96"
_cell_length_a       40.8487
_cell_length_b       40.5784
_cell_length_c       40.5707
_cell_angle_alpha    90.247
_cell_angle_beta     90.2094
_cell_angle_gamma    90.1439

_symmetry_space_group_name_H-M    'P1'
_space_group_IT_number       1

loop_
  _space_group_symop_operation_xyz
  'x, y, z'

loop_
  _atom_site_type_symbol
  _atom_site_label
  _atom_site_symmetry_multiplicity
  _atom_site_fract_x
  _atom_site_fract_y
  _atom_site_fract_z
  _atom_site_occupancy
  N   N1        1.0  0.26724  0.33270  0.94162  1.0000
  C   C1        1.0  0.25200  0.30574  0.93518  1.0000
  C   C2        1.0  0.25917  0.35202  0.97115  1.0000
  B   B1        1.0  0.27839  0.22874  0.81601  1.0000
  O   O1        1.0  0.29409  0.80641  0.74170  1.0000
  C   C3        1.0  0.62448  0.47776  0.21233  1.0000
  H   H1        1.0  0.63984  0.48239  0.19066  1.0000
  H   H2        1.0  0.60909  0.45622  0.20665  1.0000
  H   H3        1.0  0.93484  0.52338  0.74575  1.0000
  H   H4        1.0  0.23275  0.29545  0.95110  1.0000
  N   N2        1.0  0.76607  0.83461  0.44036  1.0000
  C   C4        1.0  0.74637  0.81272  0.42881  1.0000
  C   C5        1.0  0.75690  0.85337  0.47001  1.0000
  B   B2        1.0  0.77899  0.73316  0.31316  1.0000
  O   O2        1.0  0.79175  0.30344  0.24324  1.0000
  C   C6        1.0  0.12345  0.97516  0.71214  1.0000
  H   H5        1.0  0.13925  0.98028  0.69091  1.0000
  H   H6        1.0  0.10845  0.95354  0.70573  1.0000
  H   H7        1.0  0.43500  0.02284  0.24486  1.0000
  H   H8        1.0  0.72266  0.80679  0.44025  1.0000
  N   N3        1.0  0.23449  0.66351  0.43907  1.0000
  C   C7        1.0  0.25188  0.68845  0.43060  1.0000
  C   C8        1.0  0.24278  0.64539  0.46929  1.0000
  B   B3        1.0  0.22530  0.76490  0.31146  1.0000
  O   O3        1.0  0.20471  0.19492  0.24029  1.0000
  C   C9        1.0  0.87474  0.52375  0.71361  1.0000
  H   H9        1.0  0.85903  0.51850  0.69217  1.0000
  H   H10       1.0  0.88954  0.54553  0.70755  1.0000
  H   H11       1.0  0.56487  0.48042  0.24445  1.0000
  H   H12       1.0  0.27287  0.69747  0.44520  1.0000
  N   N4        1.0  0.73543  0.16591  0.93666  1.0000
  C   C10       1.0  0.75242  0.19113  0.92829  1.0000
  C   C11       1.0  0.74344  0.14789  0.96695  1.0000
  B   B4        1.0  0.72335  0.26690  0.80956  1.0000
  O   O4        1.0  0.70877  0.69849  0.74501  1.0000
  C   C12       1.0  0.37491  0.02368  0.21250  1.0000
  H   H13       1.0  0.35955  0.01849  0.19079  1.0000
  H   H14       1.0  0.38954  0.04567  0.20685  1.0000
  H   H15       1.0  0.06323  0.97576  0.74362  1.0000
  H   H16       1.0  0.77300  0.20084  0.94307  1.0000
  N   N5        1.0  0.73193  0.83268  0.55912  1.0000
  C   C13       1.0  0.75167  0.81064  0.56993  1.0000
  C   C14       1.0  0.74115  0.85239  0.53027  1.0000
  B   B5        1.0  0.72306  0.73424  0.68839  1.0000
  O   O5        1.0  0.70762  0.30503  0.75492  1.0000
  C   C15       1.0  0.37557  0.97921  0.28724  1.0000
  H   H17       1.0  0.36035  0.98414  0.30897  1.0000
  H   H18       1.0  0.39083  0.95773  0.29302  1.0000
  H   H19       1.0  0.06285  0.01849  0.75318  1.0000
  H   H20       1.0  0.77537  0.80510  0.55826  1.0000
  N   N6        1.0  0.23500  0.33659  0.06156  1.0000
  C   C16       1.0  0.25451  0.31452  0.07270  1.0000
  C   C17       1.0  0.24409  0.35472  0.03163  1.0000
  B   B6        1.0  0.22282  0.23551  0.18840  1.0000
  O   O6        1.0  0.21122  0.80165  0.25525  1.0000
  C   C18       1.0  0.87581  0.47938  0.78842  1.0000
  H   H21       1.0  0.86069  0.48451  0.81017  1.0000
  H   H22       1.0  0.89084  0.45773  0.79418  1.0000
  H   H23       1.0  0.56630  0.52290  0.25482  1.0000
  H   H24       1.0  0.27792  0.30827  0.06080  1.0000
  N   N7        1.0  0.76670  0.16644  0.05796  1.0000
  C   C19       1.0  0.75176  0.19327  0.06521  1.0000
  C   C20       1.0  0.75836  0.14837  0.02762  1.0000
  B   B7        1.0  0.77608  0.26551  0.18798  1.0000
  O   O7        1.0  0.79671  0.69315  0.26018  1.0000
  C   C21       1.0  0.12185  0.01954  0.78735  1.0000
  H   H25       1.0  0.13664  0.01457  0.80944  1.0000
  H   H26       1.0  0.10675  0.04126  0.79276  1.0000
  H   H27       1.0  0.43480  0.98019  0.25424  1.0000
  H   H28       1.0  0.73307  0.20450  0.04921  1.0000
  N   N8        1.0  0.26712  0.66543  0.55943  1.0000
  C   C22       1.0  0.24865  0.68897  0.56932  1.0000
  C   C23       1.0  0.25808  0.64633  0.52985  1.0000
  B   B8        1.0  0.27714  0.76592  0.68850  1.0000
  O   O8        1.0  0.29052  0.19332  0.75832  1.0000
  C   C24       1.0  0.62571  0.52198  0.28771  1.0000
  H   H29       1.0  0.64075  0.51654  0.30951  1.0000
  H   H30       1.0  0.61122  0.54402  0.29350  1.0000
  H   H31       1.0  0.93526  0.48072  0.75514  1.0000
  H   H32       1.0  0.22622  0.69654  0.55623  1.0000
  N   N9        1.0  0.93962  0.26664  0.33388  1.0000
  C   C25       1.0  0.92825  0.24657  0.31214  1.0000
  C   C26       1.0  0.96916  0.25767  0.35262  1.0000
  B   B9        1.0  0.81056  0.27593  0.23549  1.0000
  O   O9        1.0  0.74194  0.29459  0.80185  1.0000
  C   C27       1.0  0.21289  0.62372  0.47747  1.0000
  H   H33       1.0  0.19145  0.63929  0.48222  1.0000
  H   H34       1.0  0.20703  0.60825  0.45594  1.0000
  H   H35       1.0  0.74477  0.93434  0.52363  1.0000
  H   H36       1.0  0.93987  0.22281  0.30613  1.0000
  N   N10       1.0  0.44319  0.76963  0.83183  1.0000
  C   C28       1.0  0.42746  0.74762  0.81532  1.0000
  C   C29       1.0  0.47117  0.75975  0.85247  1.0000
  B   B10       1.0  0.31267  0.77852  0.73477  1.0000
  O   O10       1.0  0.24485  0.79178  0.30311  1.0000
  C   C30       1.0  0.71332  0.12649  0.97491  1.0000
  H   H37       1.0  0.69204  0.14228  0.97973  1.0000
  H   H38       1.0  0.70738  0.11133  0.95320  1.0000
  H   H39       1.0  0.24785  0.43639  0.01965  1.0000
  H   H40       1.0  0.43414  0.72133  0.81526  1.0000
  N   N11       1.0  0.43697  0.23495  0.66602  1.0000
  C   C31       1.0  0.42871  0.25092  0.69205  1.0000
  C   C32       1.0  0.46716  0.24339  0.64839  1.0000
  B   B11       1.0  0.31030  0.22015  0.76658  1.0000
  O   O11       1.0  0.24197  0.20843  0.19668  1.0000
  C   C33       1.0  0.71167  0.87461  0.52233  1.0000
  H   H41       1.0  0.69017  0.85930  0.51653  1.0000
  H   H42       1.0  0.70561  0.88936  0.54424  1.0000
  H   H43       1.0  0.24481  0.56311  0.47977  1.0000
  H   H44       1.0  0.44356  0.27095  0.70285  1.0000
  N   N12       1.0  0.94212  0.73260  0.16715  1.0000
  C   C34       1.0  0.93294  0.75069  0.19141  1.0000
  C   C35       1.0  0.97122  0.74193  0.14804  1.0000
  B   B12       1.0  0.81582  0.72047  0.26827  1.0000
  O   O12       1.0  0.74184  0.70693  0.69679  1.0000
  C   C36       1.0  0.21472  0.37667  0.02282  1.0000
  H   H45       1.0  0.19299  0.36128  0.01831  1.0000
  H   H46       1.0  0.20922  0.39264  0.04402  1.0000
  H   H47       1.0  0.74452  0.06592  0.97634  1.0000
  H   H48       1.0  0.94610  0.77313  0.19930  1.0000
  N   N13       1.0  0.56132  0.73680  0.83479  1.0000
  C   C37       1.0  0.57053  0.75488  0.81067  1.0000
  C   C38       1.0  0.53136  0.74488  0.85295  1.0000
  B   B13       1.0  0.68894  0.72491  0.73603  1.0000
  O   O13       1.0  0.75988  0.70601  0.30464  1.0000
  C   C39       1.0  0.28907  0.37419  0.97842  1.0000
  H   H49       1.0  0.31054  0.35893  0.98405  1.0000
  H   H50       1.0  0.29478  0.38833  0.95613  1.0000
  H   H51       1.0  0.75398  0.06600  0.01908  1.0000
  H   H52       1.0  0.55667  0.77643  0.80196  1.0000
  N   N14       1.0  0.05872  0.23422  0.33265  1.0000
  C   C40       1.0  0.06759  0.25207  0.30822  1.0000
  C   C41       1.0  0.02930  0.24269  0.35156  1.0000
  B   B14       1.0  0.18581  0.22242  0.23281  1.0000
  O   O14       1.0  0.25976  0.20097  0.80828  1.0000
  C   C42       1.0  0.78660  0.87505  0.47897  1.0000
  H   H53       1.0  0.80787  0.85937  0.48421  1.0000
  H   H54       1.0  0.79286  0.89022  0.45753  1.0000
  H   H55       1.0  0.25412  0.56442  0.52254  1.0000
  H   H56       1.0  0.05392  0.27389  0.29982  1.0000
  N   N15       1.0  0.06158  0.76623  0.16535  1.0000
  C   C43       1.0  0.06944  0.75038  0.19150  1.0000
  C   C44       1.0  0.03118  0.75802  0.14766  1.0000
  B   B15       1.0  0.19093  0.77547  0.26399  1.0000
  O   O15       1.0  0.25796  0.79304  0.69659  1.0000
  C   C45       1.0  0.78757  0.12565  0.02004  1.0000
  H   H57       1.0  0.80950  0.14049  0.01501  1.0000
  H   H58       1.0  0.79279  0.11080  0.04201  1.0000
  H   H59       1.0  0.25732  0.43441  0.97705  1.0000
  H   H60       1.0  0.05385  0.73115  0.20240  1.0000
  N   N16       1.0  0.55671  0.26940  0.66699  1.0000
  C   C46       1.0  0.56544  0.25290  0.69243  1.0000
  C   C47       1.0  0.52701  0.25982  0.64875  1.0000
  B   B16       1.0  0.68777  0.27841  0.76339  1.0000
  O   O16       1.0  0.75687  0.29251  0.19646  1.0000
  C   C48       1.0  0.28745  0.62389  0.52217  1.0000
  H   H61       1.0  0.30917  0.63896  0.51693  1.0000
  H   H62       1.0  0.29309  0.60905  0.54404  1.0000
  H   H63       1.0  0.75451  0.93557  0.48107  1.0000
  H   H64       1.0  0.55110  0.23216  0.70229  1.0000
  N   N17       1.0  0.33495  0.94125  0.26638  1.0000
  C   C49       1.0  0.31240  0.93043  0.24705  1.0000
  C   C50       1.0  0.35358  0.97098  0.25743  1.0000
  B   B17       1.0  0.23754  0.81063  0.27536  1.0000
  O   O17       1.0  0.80691  0.74024  0.29489  1.0000
  C   C51       1.0  0.47587  0.21301  0.62729  1.0000
  H   H65       1.0  0.48113  0.19192  0.64335  1.0000
  H   H66       1.0  0.45445  0.20637  0.61221  1.0000
  H   H67       1.0  0.52152  0.74622  0.93512  1.0000
  H   H68       1.0  0.30552  0.94269  0.22385  1.0000
  N   N18       1.0  0.83439  0.44189  0.76759  1.0000
  C   C52       1.0  0.81351  0.43044  0.74675  1.0000
  C   C53       1.0  0.85367  0.47121  0.75871  1.0000
  B   B18       1.0  0.73443  0.31363  0.77442  1.0000
  O   O18       1.0  0.30346  0.23832  0.79492  1.0000
  C   C54       1.0  0.97908  0.71244  0.12540  1.0000
  H   H69       1.0  0.98440  0.69061  0.14039  1.0000
  H   H70       1.0  0.95731  0.70670  0.11042  1.0000
  H   H71       1.0  0.02246  0.24502  0.43345  1.0000
  H   H72       1.0  0.80887  0.44181  0.72256  1.0000
  N   N19       1.0  0.66459  0.43930  0.23324  1.0000
  C   C55       1.0  0.68745  0.42924  0.25247  1.0000
  C   C56       1.0  0.64628  0.46921  0.24215  1.0000
  B   B19       1.0  0.76485  0.31178  0.22383  1.0000
  O   O19       1.0  0.19499  0.24267  0.20679  1.0000
  C   C57       1.0  0.52338  0.71461  0.87426  1.0000
  H   H73       1.0  0.51854  0.69315  0.85836  1.0000
  H   H74       1.0  0.54497  0.70876  0.88932  1.0000
  H   H75       1.0  0.47708  0.24367  0.56624  1.0000
  H   H76       1.0  0.69446  0.44217  0.27539  1.0000
  N   N20       1.0  0.16377  0.93781  0.73389  1.0000
  C   C58       1.0  0.18588  0.92770  0.75394  1.0000
  C   C59       1.0  0.14455  0.96708  0.74251  1.0000
  B   B20       1.0  0.26633  0.81334  0.72304  1.0000
  O   O20       1.0  0.69664  0.74316  0.70814  1.0000
  C   C60       1.0  0.02184  0.21273  0.37350  1.0000
  H   H77       1.0  0.01681  0.19099  0.35805  1.0000
  H   H78       1.0  0.04362  0.20715  0.38840  1.0000
  H   H79       1.0  0.97900  0.74554  0.06579  1.0000
  H   H80       1.0  0.19156  0.94008  0.77751  1.0000
  N   N21       1.0  0.83372  0.56081  0.73493  1.0000
  C   C61       1.0  0.81330  0.57271  0.75577  1.0000
  C   C62       1.0  0.85329  0.53175  0.74373  1.0000
  B   B21       1.0  0.73479  0.68896  0.72510  1.0000
  O   O21       1.0  0.30383  0.75820  0.70844  1.0000
  C   C63       1.0  0.97740  0.28738  0.37486  1.0000
  H   H81       1.0  0.98202  0.30921  0.35962  1.0000
  H   H82       1.0  0.95599  0.29286  0.39022  1.0000
  H   H83       1.0  0.02126  0.75570  0.06562  1.0000
  H   H84       1.0  0.80904  0.56192  0.78029  1.0000
  N   N22       1.0  0.33453  0.06128  0.23380  1.0000
  C   C64       1.0  0.31013  0.07016  0.25155  1.0000
  C   C65       1.0  0.35313  0.03152  0.24240  1.0000
  B   B22       1.0  0.23290  0.18782  0.22244  1.0000
  O   O22       1.0  0.80205  0.25659  0.20835  1.0000
  C   C66       1.0  0.47874  0.78925  0.87529  1.0000
  H   H85       1.0  0.48366  0.81122  0.86038  1.0000
  H   H86       1.0  0.45715  0.79464  0.89045  1.0000
  H   H87       1.0  0.51925  0.25415  0.56678  1.0000
  H   H88       1.0  0.30168  0.05625  0.27320  1.0000
  N   N23       1.0  0.16417  0.05629  0.76803  1.0000
  C   C67       1.0  0.18475  0.06829  0.74747  1.0000
  C   C68       1.0  0.14444  0.02749  0.75817  1.0000
  B   B23       1.0  0.26547  0.18336  0.77931  1.0000
  O   O23       1.0  0.69652  0.25854  0.78991  1.0000
  C   C69       1.0  0.02249  0.78803  0.12617  1.0000
  H   H89       1.0  0.01724  0.80948  0.14189  1.0000
  H   H90       1.0  0.04383  0.79437  0.11106  1.0000
  H   H91       1.0  0.98009  0.25448  0.43492  1.0000
  H   H92       1.0  0.18858  0.05790  0.72264  1.0000
  N   N24       1.0  0.66671  0.55924  0.26676  1.0000
  C   C70       1.0  0.69266  0.56653  0.25061  1.0000
  C   C71       1.0  0.64788  0.52959  0.25803  1.0000
  B   B24       1.0  0.76905  0.68545  0.27867  1.0000
  O   O24       1.0  0.19840  0.75684  0.29175  1.0000
  C   C72       1.0  0.51879  0.28879  0.62580  1.0000
  H   H93       1.0  0.51313  0.31084  0.64050  1.0000
  H   H94       1.0  0.54054  0.29452  0.61103  1.0000
  H   H95       1.0  0.47908  0.75540  0.93445  1.0000
  H   H96       1.0  0.70237  0.55118  0.23046  1.0000
  N   N25       1.0  0.58349  0.51846  0.19119  1.0000
  C   C73       1.0  0.56437  0.49745  0.17728  1.0000
  C   C74       1.0  0.60333  0.50826  0.21971  1.0000
  B   B25       1.0  0.48303  0.53032  0.06323  1.0000
  O   O25       1.0  0.05666  0.54286  0.99277  1.0000
  C   C75       1.0  0.72746  0.87594  0.46284  1.0000
  H   H97       1.0  0.73292  0.89166  0.44157  1.0000
  H   H98       1.0  0.70575  0.86118  0.45643  1.0000
  H   H99       1.0  0.77299  0.18542  0.99247  1.0000
  H   H100      1.0  0.56177  0.47177  0.18569  1.0000
  N   N26       1.0  0.08425  0.01303  0.68815  1.0000
  C   C76       1.0  0.05675  0.99927  0.68127  1.0000
  C   C77       1.0  0.10120  0.00500  0.71898  1.0000
  B   B26       1.0  0.98489  0.02545  0.55962  1.0000
  O   O26       1.0  0.55329  0.04247  0.49481  1.0000
  C   C78       1.0  0.22965  0.37424  0.96312  1.0000
  H   H101      1.0  0.23468  0.38867  0.94086  1.0000
  H   H102      1.0  0.20796  0.35898  0.95798  1.0000
  H   H103      1.0  0.27212  0.68334  0.49443  1.0000
  H   H104      1.0  0.04432  0.98195  0.69788  1.0000
  N   N27       1.0  0.91535  0.48539  0.69056  1.0000
  C   C79       1.0  0.93864  0.50418  0.68075  1.0000
  C   C80       1.0  0.89712  0.49405  0.72052  1.0000
  B   B27       1.0  0.01387  0.47481  0.56196  1.0000
  O   O27       1.0  0.44284  0.45223  0.48688  1.0000
  C   C81       1.0  0.77270  0.12499  0.96013  1.0000
  H   H105      1.0  0.76747  0.10941  0.93853  1.0000
  H   H106      1.0  0.79453  0.13973  0.95437  1.0000
  H   H107      1.0  0.72744  0.81539  0.49415  1.0000
  H   H108      1.0  0.94634  0.52663  0.69408  1.0000
  N   N28       1.0  0.41677  0.98521  0.19039  1.0000
  C   C82       1.0  0.43690  0.00642  0.17862  1.0000
  C   C83       1.0  0.39719  0.99399  0.21953  1.0000
  B   B28       1.0  0.51504  0.97804  0.06142  1.0000
  O   O28       1.0  0.94637  0.95835  0.99338  1.0000
  C   C84       1.0  0.27214  0.62261  0.46236  1.0000
  H   H109      1.0  0.26669  0.60690  0.44089  1.0000
  H   H110      1.0  0.29389  0.63733  0.45634  1.0000
  H   H111      1.0  0.22982  0.31575  0.99813  1.0000
  H   H112      1.0  0.44069  0.03108  0.18951  1.0000
  N   N29       1.0  0.08031  0.98079  0.80829  1.0000
  C   C85       1.0  0.05778  0.00034  0.81826  1.0000
  C   C86       1.0  0.09989  0.98966  0.77935  1.0000
  B   B29       1.0  0.98225  0.97196  0.93682  1.0000
  O   O29       1.0  0.55216  0.96169  0.00649  1.0000
  C   C87       1.0  0.22806  0.62456  0.53726  1.0000
  H   H113      1.0  0.23281  0.60962  0.55927  1.0000
  H   H114      1.0  0.20666  0.64002  0.54260  1.0000
  H   H115      1.0  0.27221  0.31555  0.00775  1.0000
  H   H116      1.0  0.05160  0.02362  0.80581  1.0000
  N   N30       1.0  0.58407  0.48408  0.30968  1.0000
  C   C88       1.0  0.56052  0.50270  0.31912  1.0000
  C   C89       1.0  0.60288  0.49260  0.28011  1.0000
  B   B30       1.0  0.48372  0.47260  0.43644  1.0000
  O   O30       1.0  0.05219  0.45825  0.50809  1.0000
  C   C90       1.0  0.72819  0.12669  0.03472  1.0000
  H   H117      1.0  0.73274  0.11152  0.05660  1.0000
  H   H118      1.0  0.70695  0.14233  0.04019  1.0000
  H   H119      1.0  0.76966  0.81471  0.50445  1.0000
  H   H120      1.0  0.55299  0.52509  0.30585  1.0000
  N   N31       1.0  0.41526  0.01732  0.31074  1.0000
  C   C91       1.0  0.44204  0.00242  0.31785  1.0000
  C   C92       1.0  0.39756  0.00926  0.28017  1.0000
  B   B31       1.0  0.51421  0.02568  0.44075  1.0000
  O   O31       1.0  0.94652  0.04149  0.50509  1.0000
  C   C93       1.0  0.27401  0.37696  0.03813  1.0000
  H   H121      1.0  0.26917  0.39333  0.05918  1.0000
  H   H122      1.0  0.29550  0.36207  0.04459  1.0000
  H   H123      1.0  0.22974  0.68397  0.50381  1.0000
  H   H124      1.0  0.45358  0.98423  0.30140  1.0000
  N   N32       1.0  0.91727  0.51807  0.81050  1.0000
  C   C94       1.0  0.93954  0.49817  0.82050  1.0000
  C   C95       1.0  0.89785  0.50934  0.78109  1.0000
  B   B32       1.0  0.01776  0.52526  0.93867  1.0000
  O   O32       1.0  0.44498  0.54646  0.00845  1.0000
  C   C96       1.0  0.77097  0.87440  0.53839  1.0000
  H   H125      1.0  0.76582  0.88942  0.56035  1.0000
  H   H126      1.0  0.79242  0.85915  0.54409  1.0000
  H   H127      1.0  0.73048  0.18641  0.00139  1.0000
  H   H128      1.0  0.94546  0.47499  0.80761  1.0000
  N   N33       1.0  0.51495  0.19018  0.58686  1.0000
  C   C97       1.0  0.49522  0.17865  0.56494  1.0000
  C   C98       1.0  0.50566  0.22005  0.60524  1.0000
  B   B33       1.0  0.52502  0.06044  0.48808  1.0000
  O   O33       1.0  0.54071  0.99838  0.05171  1.0000
  C   C99       1.0  0.87555  0.46405  0.72872  1.0000
  H   H129      1.0  0.89113  0.44262  0.73383  1.0000
  H   H130      1.0  0.86064  0.45792  0.70696  1.0000
  H   H131      1.0  0.18139  0.99228  0.77280  1.0000
  H   H132      1.0  0.47167  0.19034  0.55875  1.0000
  N   N34       1.0  0.01752  0.69094  0.08365  1.0000
  C   C100      1.0  0.99793  0.67987  0.06142  1.0000
  C   C101      1.0  0.00848  0.72021  0.10305  1.0000
  B   B34       1.0  0.02904  0.56143  0.98507  1.0000
  O   O34       1.0  0.04179  0.49323  0.55477  1.0000
  C   C102      1.0  0.37550  0.96394  0.22738  1.0000
  H   H133      1.0  0.39101  0.94241  0.23223  1.0000
  H   H134      1.0  0.36038  0.95804  0.20567  1.0000
  H   H135      1.0  0.68459  0.49359  0.27136  1.0000
  H   H136      1.0  0.97442  0.69168  0.05528  1.0000
  N   N35       1.0  0.48439  0.69190  0.91514  1.0000
  C   C103      1.0  0.50425  0.68084  0.93700  1.0000
  C   C104      1.0  0.49348  0.72134  0.89623  1.0000
  B   B35       1.0  0.47185  0.56596  0.01694  1.0000
  O   O35       1.0  0.45656  0.49147  0.44493  1.0000
  C   C105      1.0  0.12173  0.95976  0.77168  1.0000
  H   H137      1.0  0.10632  0.93825  0.76591  1.0000
  H   H138      1.0  0.13607  0.95369  0.79379  1.0000
  H   H139      1.0  0.81573  0.49633  0.73017  1.0000
  H   H140      1.0  0.52806  0.69242  0.94265  1.0000
  N   N36       1.0  0.98439  0.18931  0.41408  1.0000
  C   C106      1.0  0.00126  0.18082  0.43936  1.0000
  C   C107      1.0  0.99248  0.21963  0.39622  1.0000
  B   B36       1.0  0.97460  0.05978  0.51227  1.0000
  O   O36       1.0  0.95583  0.99172  0.94543  1.0000
  C   C108      1.0  0.62404  0.46231  0.27189  1.0000
  H   H141      1.0  0.60822  0.44097  0.26661  1.0000
  H   H142      1.0  0.63884  0.45612  0.29365  1.0000
  H   H143      1.0  0.31560  0.99606  0.22882  1.0000
  H   H144      1.0  0.02172  0.19561  0.44928  1.0000
  N   N37       1.0  0.98349  0.81025  0.08545  1.0000
  C   C109      1.0  0.00129  0.81955  0.06117  1.0000
  C   C110      1.0  0.99263  0.78052  0.10398  1.0000
  B   B37       1.0  0.97198  0.93764  0.98433  1.0000
  O   O37       1.0  0.95604  0.00830  0.55313  1.0000
  C   C111      1.0  0.62611  0.53743  0.22800  1.0000
  H   H145      1.0  0.61147  0.55956  0.23290  1.0000
  H   H146      1.0  0.64159  0.54277  0.20656  1.0000
  H   H147      1.0  0.31599  0.00564  0.27153  1.0000
  H   H148      1.0  0.02331  0.80617  0.05308  1.0000
  N   N38       1.0  0.48057  0.30879  0.58301  1.0000
  C   C112      1.0  0.50030  0.31871  0.56056  1.0000
  C   C113      1.0  0.48954  0.28023  0.60329  1.0000
  B   B38       1.0  0.47124  0.43453  0.48031  1.0000
  O   O38       1.0  0.45661  0.51047  0.05410  1.0000
  C   C114      1.0  0.12308  0.03482  0.72770  1.0000
  H   H149      1.0  0.10786  0.05660  0.73253  1.0000
  H   H150      1.0  0.13839  0.04042  0.70624  1.0000
  H   H151      1.0  0.81611  0.50614  0.77281  1.0000
  H   H152      1.0  0.52381  0.30656  0.55522  1.0000
  N   N39       1.0  0.01653  0.30960  0.41608  1.0000
  C   C115      1.0  0.99640  0.32075  0.43760  1.0000
  C   C116      1.0  0.00753  0.28025  0.39655  1.0000
  B   B39       1.0  0.02467  0.43936  0.51527  1.0000
  O   O39       1.0  0.04527  0.50673  0.94667  1.0000
  C   C117      1.0  0.37545  0.03896  0.27227  1.0000
  H   H153      1.0  0.39050  0.06081  0.26716  1.0000
  H   H154      1.0  0.36054  0.04466  0.29402  1.0000
  H   H155      1.0  0.68460  0.50326  0.22876  1.0000
  H   H156      1.0  0.97264  0.30901  0.44288  1.0000
  N   N40       1.0  0.51631  0.81196  0.91638  1.0000
  C   C118      1.0  0.50086  0.81915  0.94291  1.0000
  C   C119      1.0  0.50831  0.78191  0.89779  1.0000
  B   B40       1.0  0.52662  0.94112  0.01595  1.0000
  O   O40       1.0  0.54205  0.00734  0.44818  1.0000
  C   C120      1.0  0.87584  0.53911  0.77341  1.0000
  H   H157      1.0  0.89109  0.56080  0.76816  1.0000
  H   H158      1.0  0.86133  0.54490  0.79542  1.0000
  H   H159      1.0  0.18266  0.00220  0.73030  1.0000
  H   H160      1.0  0.48172  0.80332  0.95355  1.0000
  N   N41       1.0  0.18997  0.58378  0.51651  1.0000
  C   C121      1.0  0.18074  0.55903  0.49897  1.0000
  C   C122      1.0  0.21987  0.60197  0.50774  1.0000
  B   B41       1.0  0.06107  0.48505  0.52770  1.0000
  O   O41       1.0  0.99486  0.05025  0.53824  1.0000
  C   C123      1.0  0.46408  0.72935  0.87385  1.0000
  H   H161      1.0  0.44231  0.73378  0.88904  1.0000
  H   H162      1.0  0.45899  0.70754  0.85855  1.0000
  H   H163      1.0  0.99694  0.77019  0.18648  1.0000
  H   H164      1.0  0.19454  0.54985  0.47753  1.0000
  N   N42       1.0  0.68996  0.08641  0.01358  1.0000
  C   C124      1.0  0.67946  0.06325  0.99467  1.0000
  C   C125      1.0  0.71993  0.10445  0.00499  1.0000
  B   B42       1.0  0.56008  0.98966  0.02484  1.0000
  O   O42       1.0  0.49028  0.55825  0.04478  1.0000
  C   C126      1.0  0.96240  0.22770  0.37474  1.0000
  H   H165      1.0  0.94117  0.23271  0.39053  1.0000
  H   H166      1.0  0.95636  0.20591  0.35971  1.0000
  H   H167      1.0  0.49183  0.27395  0.68588  1.0000
  H   H168      1.0  0.69218  0.05540  0.97205  1.0000
  N   N43       1.0  0.68943  0.91580  0.48479  1.0000
  C   C127      1.0  0.68221  0.94226  0.50058  1.0000
  C   C128      1.0  0.71928  0.89749  0.49309  1.0000
  B   B43       1.0  0.56193  0.01586  0.47489  1.0000
  O   O43       1.0  0.49174  0.44493  0.45505  1.0000
  C   C129      1.0  0.96340  0.77197  0.12629  1.0000
  H   H169      1.0  0.94162  0.76680  0.11116  1.0000
  H   H170      1.0  0.95772  0.79350  0.14174  1.0000
  H   H171      1.0  0.49655  0.73185  0.81431  1.0000
  H   H172      1.0  0.69775  0.95280  0.52021  1.0000
  N   N44       1.0  0.19289  0.41653  0.98270  1.0000
  C   C130      1.0  0.18291  0.43973  0.00173  1.0000
  C   C131      1.0  0.22206  0.39757  0.99213  1.0000
  B   B44       1.0  0.06487  0.51559  0.97351  1.0000
  O   O44       1.0  0.99036  0.94511  0.95651  1.0000
  C   C132      1.0  0.45979  0.27244  0.62515  1.0000
  H   H173      1.0  0.43843  0.26659  0.60966  1.0000
  H   H174      1.0  0.45363  0.29448  0.63967  1.0000
  H   H175      1.0  0.99359  0.22880  0.31430  1.0000
  H   H176      1.0  0.19560  0.44684  0.02472  1.0000
  N   N45       1.0  0.80913  0.08354  0.98172  1.0000
  C   C133      1.0  0.82009  0.06208  0.00210  1.0000
  C   C134      1.0  0.78010  0.10318  0.99022  1.0000
  B   B45       1.0  0.93754  0.98484  0.97352  1.0000
  O   O45       1.0  0.00958  0.55213  0.95838  1.0000
  C   C135      1.0  0.53492  0.22931  0.62744  1.0000
  H   H177      1.0  0.55658  0.23426  0.61227  1.0000
  H   H178      1.0  0.54088  0.20832  0.64337  1.0000
  H   H179      1.0  0.00312  0.27149  0.31420  1.0000
  H   H180      1.0  0.80823  0.05661  0.02583  1.0000
  N   N46       1.0  0.31001  0.58307  0.48463  1.0000
  C   C136      1.0  0.31612  0.55508  0.49787  1.0000
  C   C137      1.0  0.27996  0.60106  0.49261  1.0000
  B   B46       1.0  0.43560  0.48100  0.46980  1.0000
  O   O46       1.0  0.50508  0.05144  0.46160  1.0000
  C   C138      1.0  0.03835  0.72853  0.12477  1.0000
  H   H181      1.0  0.05952  0.73410  0.10912  1.0000
  H   H182      1.0  0.04474  0.70683  0.13953  1.0000
  H   H183      1.0  0.50630  0.77448  0.81545  1.0000
  H   H184      1.0  0.29945  0.54284  0.51524  1.0000
  N   N47       1.0  0.31164  0.41681  0.01575  1.0000
  C   C139      1.0  0.32189  0.43905  0.99589  1.0000
  C   C140      1.0  0.28215  0.39767  0.00750  1.0000
  B   B47       1.0  0.43718  0.51884  0.02711  1.0000
  O   O47       1.0  0.50806  0.94964  0.04334  1.0000
  C   C141      1.0  0.03671  0.27266  0.37385  1.0000
  H   H185      1.0  0.05872  0.26794  0.38871  1.0000
  H   H186      1.0  0.04182  0.29440  0.35864  1.0000
  H   H187      1.0  0.50173  0.23140  0.68694  1.0000
  H   H188      1.0  0.30956  0.44510  0.97248  1.0000
  N   N48       1.0  0.80846  0.91626  0.51843  1.0000
  C   C142      1.0  0.81953  0.93768  0.49809  1.0000
  C   C143      1.0  0.77927  0.89693  0.50911  1.0000
  B   B48       1.0  0.93731  0.01546  0.52533  1.0000
  O   O48       1.0  0.00501  0.44834  0.54177  1.0000
  C   C144      1.0  0.53818  0.77445  0.87594  1.0000
  H   H189      1.0  0.55967  0.76929  0.89142  1.0000
  H   H190      1.0  0.54391  0.79644  0.86133  1.0000
  H   H191      1.0  0.00664  0.72761  0.18473  1.0000
  H   H192      1.0  0.80777  0.94286  0.47417  1.0000
  C   C145      1.0  0.25071  0.66768  0.49929  1.0000
  C   C146      1.0  0.25131  0.33160  0.00216  1.0000
  C   C147      1.0  0.75138  0.16996  0.99711  1.0000
  C   C148      1.0  0.74878  0.83103  0.49964  1.0000
  C   C149      1.0  0.49688  0.25225  0.67045  1.0000
  C   C150      1.0  0.99881  0.25017  0.33022  1.0000
  C   C151      1.0  0.00160  0.74946  0.16965  1.0000
  C   C152      1.0  0.50153  0.75282  0.83085  1.0000
  C   C153      1.0  0.66873  0.49892  0.25012  1.0000
  C   C154      1.0  0.33166  0.00108  0.25005  1.0000
  C   C155      1.0  0.16614  0.99721  0.75102  1.0000
  C   C156      1.0  0.83180  0.50135  0.75139  1.0000
  C   C157      1.0  0.91918  0.50190  0.75057  1.0000
  C   C158      1.0  0.58145  0.50112  0.24989  1.0000
  C   C159      1.0  0.41903  0.00162  0.24985  1.0000
  C   C160      1.0  0.07889  0.99726  0.74860  1.0000
  C   C161      1.0  0.50060  0.75130  0.91882  1.0000
  C   C162      1.0  0.49791  0.24944  0.58249  1.0000
  C   C163      1.0  0.00069  0.24974  0.41822  1.0000
  C   C164      1.0  0.00030  0.75052  0.08169  1.0000
  C   C165      1.0  0.74935  0.91899  0.50177  1.0000
  C   C166      1.0  0.24972  0.57971  0.50069  1.0000
  C   C167      1.0  0.25235  0.41944  0.99897  1.0000
  C   C168      1.0  0.74956  0.08193  0.99769  1.0000
  C  Sn1       1.0  0.23899  0.74446  0.61005  1.0000
  C   C169      1.0  0.25692  0.71821  0.59700  1.0000
  C  Sn2       1.0  0.28069  0.70247  0.61608  1.0000
  C  Sn3       1.0  0.28666  0.71318  0.64888  1.0000
  C   C170      1.0  0.26873  0.73942  0.66191  1.0000
  C  Sn4       1.0  0.24496  0.75517  0.64285  1.0000
  O  Te1       1.0  0.21535  0.75983  0.59053  1.0000
  O  Te2       1.0  0.29831  0.67629  0.60249  1.0000
  O  Te3       1.0  0.31032  0.69779  0.66839  1.0000
  O  Te4       1.0  0.22734  0.78134  0.65642  1.0000
  Mg  Mg1       1.0  0.32795  0.66323  0.63885  1.0000
  Mg  Mg2       1.0  0.19769  0.79440  0.62009  1.0000
  C  Sn5       1.0  0.74616  0.25034  0.10482  1.0000
  C   C171      1.0  0.76143  0.22158  0.09378  1.0000
  C  Sn6       1.0  0.77950  0.20219  0.11560  1.0000
  C  Sn7       1.0  0.78234  0.21174  0.14917  1.0000
  C   C172      1.0  0.76707  0.24048  0.16019  1.0000
  C  Sn8       1.0  0.74900  0.25989  0.13838  1.0000
  O  Te5       1.0  0.72822  0.26934  0.08257  1.0000
  O  Te6       1.0  0.79455  0.17355  0.10399  1.0000
  O  Te7       1.0  0.80030  0.19271  0.17142  1.0000
  O  Te8       1.0  0.73395  0.28851  0.14998  1.0000
  Mg  Mg3       1.0  0.81632  0.15583  0.14381  1.0000
  Mg  Mg4       1.0  0.71217  0.30624  0.11018  1.0000
  C  Sn9       1.0  0.26886  0.25977  0.13933  1.0000
  C   C173      1.0  0.24152  0.26227  0.15979  1.0000
  C  Sn10      1.0  0.21421  0.28039  0.14985  1.0000
  C  Sn11      1.0  0.21421  0.29633  0.11881  1.0000
  C   C174      1.0  0.24153  0.29383  0.09837  1.0000
  C  Sn12      1.0  0.26886  0.27571  0.10828  1.0000
  O  Te9       1.0  0.29589  0.24152  0.14976  1.0000
  O  Te10      1.0  0.18717  0.28254  0.17074  1.0000
  O  Te11      1.0  0.18714  0.31459  0.10839  1.0000
  O  Te12      1.0  0.29588  0.27355  0.08741  1.0000
  Mg  Mg5       1.0  0.15617  0.31024  0.14554  1.0000
  Mg  Mg6       1.0  0.32688  0.24584  0.11258  1.0000
  C  Sn13      1.0  0.76814  0.75993  0.63913  1.0000
  C   C175      1.0  0.73980  0.76043  0.65831  1.0000
  C  Sn14      1.0  0.71116  0.77487  0.64628  1.0000
  C  Sn15      1.0  0.71085  0.78909  0.61440  1.0000
  C   C176      1.0  0.73918  0.78859  0.59524  1.0000
  C  Sn16      1.0  0.76783  0.77415  0.60726  1.0000
  O  Te13      1.0  0.79649  0.74536  0.65165  1.0000
  O  Te14      1.0  0.68313  0.77508  0.66591  1.0000
  O  Te15      1.0  0.68247  0.80367  0.60189  1.0000
  O  Te16      1.0  0.79584  0.77393  0.58764  1.0000
  Mg  Mg7       1.0  0.65050  0.79784  0.63795  1.0000
  Mg  Mg8       1.0  0.82848  0.75117  0.61556  1.0000
  C  Sn17      1.0  0.72239  0.19642  0.86497  1.0000
  C   C177      1.0  0.74658  0.20252  0.88869  1.0000
  C  Sn18      1.0  0.76244  0.23304  0.89002  1.0000
  C  Sn19      1.0  0.75394  0.25799  0.86718  1.0000
  C   C178      1.0  0.72976  0.25189  0.84349  1.0000
  C  Sn20      1.0  0.71388  0.22138  0.84214  1.0000
  O  Te17      1.0  0.70685  0.16574  0.86410  1.0000
  O  Te18      1.0  0.78655  0.23855  0.91394  1.0000
  O  Te19      1.0  0.76950  0.28869  0.86808  1.0000
  O  Te20      1.0  0.68978  0.21586  0.81823  1.0000
  Mg  Mg9       1.0  0.80073  0.28437  0.90522  1.0000
  Mg  Mg10      1.0  0.67558  0.17005  0.82695  1.0000
  C  Sn21      1.0  0.22144  0.69525  0.36770  1.0000
  C   C179      1.0  0.24589  0.70042  0.39136  1.0000
  C  Sn22      1.0  0.26292  0.73029  0.39262  1.0000
  C  Sn23      1.0  0.25535  0.75553  0.36976  1.0000
  C   C180      1.0  0.23091  0.75035  0.34613  1.0000
  C  Sn24      1.0  0.21387  0.72048  0.34485  1.0000
  O  Te21      1.0  0.20472  0.66519  0.36690  1.0000
  O  Te22      1.0  0.28727  0.73489  0.41648  1.0000
  O  Te23      1.0  0.27210  0.78560  0.37058  1.0000
  O  Te24      1.0  0.18953  0.71589  0.32100  1.0000
  Mg  Mg11      1.0  0.30320  0.78011  0.40767  1.0000
  Mg  Mg12      1.0  0.17357  0.67069  0.32981  1.0000
  C  Sn25      1.0  0.78235  0.80306  0.36966  1.0000
  C   C181      1.0  0.75520  0.80013  0.39031  1.0000
  C  Sn26      1.0  0.73568  0.77183  0.38924  1.0000
  C  Sn27      1.0  0.74347  0.74590  0.36708  1.0000
  C   C182      1.0  0.77061  0.74883  0.34645  1.0000
  C  Sn28      1.0  0.79014  0.77713  0.34750  1.0000
  O  Te25      1.0  0.80153  0.83157  0.37114  1.0000
  O  Te26      1.0  0.70865  0.76948  0.41011  1.0000
  O  Te27      1.0  0.72427  0.71738  0.36561  1.0000
  O  Te28      1.0  0.81716  0.77949  0.32665  1.0000
  Mg  Mg13      1.0  0.69000  0.72573  0.39897  1.0000
  Mg  Mg14      1.0  0.83583  0.82322  0.33778  1.0000
  C  Sn29      1.0  0.28068  0.29912  0.87174  1.0000
  C   C183      1.0  0.25759  0.29282  0.89627  1.0000
  C  Sn30      1.0  0.24270  0.26188  0.89846  1.0000
  C  Sn31      1.0  0.25107  0.23671  0.87567  1.0000
  C   C184      1.0  0.27416  0.24300  0.85116  1.0000
  C  Sn32      1.0  0.28906  0.27394  0.84895  1.0000
  O  Te29      1.0  0.29526  0.33022  0.87001  1.0000
  O  Te30      1.0  0.21968  0.25618  0.92319  1.0000
  O  Te31      1.0  0.23647  0.20558  0.87742  1.0000
  O  Te32      1.0  0.31207  0.27964  0.82424  1.0000
  Mg  Mg15      1.0  0.20655  0.20978  0.91546  1.0000
  Mg  Mg16      1.0  0.32522  0.32603  0.83196  1.0000
  C  Sn33      1.0  0.62794  0.28364  0.69678  1.0000
  C   C185      1.0  0.60459  0.25921  0.70290  1.0000
  C  Sn34      1.0  0.60503  0.24188  0.73257  1.0000
  C  Sn35      1.0  0.62930  0.24912  0.75663  1.0000
  C   C186      1.0  0.65263  0.27353  0.75051  1.0000
  C  Sn36      1.0  0.65222  0.29088  0.72085  1.0000
  O  Te33      1.0  0.62704  0.30066  0.66695  1.0000
  O  Te34      1.0  0.58144  0.21756  0.73812  1.0000
  O  Te35      1.0  0.63019  0.23207  0.78648  1.0000
  O  Te36      1.0  0.67579  0.31519  0.71529  1.0000
  Mg  Mg17      1.0  0.59282  0.20114  0.78259  1.0000
  Mg  Mg18      1.0  0.66442  0.33163  0.67085  1.0000
  C  Sn37      1.0  0.14124  0.79374  0.21626  1.0000
  C   C187      1.0  0.15330  0.77695  0.24372  1.0000
  C  Sn38      1.0  0.13997  0.74656  0.25271  1.0000
  C  Sn39      1.0  0.11406  0.73267  0.23384  1.0000
  C   C188      1.0  0.10201  0.74946  0.20640  1.0000
  C  Sn40      1.0  0.11532  0.77984  0.19739  1.0000
  O  Te37      1.0  0.15493  0.82408  0.20772  1.0000
  O  Te38      1.0  0.15243  0.73024  0.28027  1.0000
  O  Te39      1.0  0.10036  0.70230  0.24240  1.0000
  O  Te40      1.0  0.10288  0.79616  0.16984  1.0000
  Mg  Mg19      1.0  0.12569  0.68953  0.28200  1.0000
  Mg  Mg20      1.0  0.12962  0.83686  0.16808  1.0000
  C  Sn41      1.0  0.10710  0.25952  0.25175  1.0000
  C   C189      1.0  0.09475  0.24278  0.27907  1.0000
  C  Sn42      1.0  0.11437  0.22050  0.29627  1.0000
  C  Sn43      1.0  0.14702  0.21485  0.28596  1.0000
  C   C190      1.0  0.15936  0.23158  0.25866  1.0000
  C  Sn44      1.0  0.13975  0.25386  0.24144  1.0000
  O  Te41      1.0  0.08705  0.28168  0.23493  1.0000
  O  Te42      1.0  0.10147  0.20406  0.32350  1.0000
  O  Te43      1.0  0.16707  0.19266  0.30281  1.0000
  O  Te44      1.0  0.15263  0.27031  0.21423  1.0000
  Mg  Mg21      1.0  0.13839  0.17625  0.33839  1.0000
  Mg  Mg22      1.0  0.11575  0.29813  0.19933  1.0000
  C  Sn45      1.0  0.63801  0.70768  0.78262  1.0000
  C   C191      1.0  0.65106  0.72499  0.75600  1.0000
  C  Sn46      1.0  0.64030  0.75685  0.74895  1.0000
  C  Sn47      1.0  0.61601  0.77173  0.76893  1.0000
  C   C192      1.0  0.60297  0.75443  0.79554  1.0000
  C  Sn48      1.0  0.61371  0.72256  0.80261  1.0000
  O  Te45      1.0  0.64912  0.67586  0.78921  1.0000
  O  Te46      1.0  0.65371  0.77366  0.72220  1.0000
  O  Te47      1.0  0.60489  0.80358  0.76232  1.0000
  O  Te48      1.0  0.60032  0.70575  0.82934  1.0000
  Mg  Mg23      1.0  0.63061  0.81649  0.72317  1.0000
  Mg  Mg24      1.0  0.62341  0.66293  0.82840  1.0000
  C  Sn49      1.0  0.87322  0.71578  0.20001  1.0000
  C   C193      1.0  0.89479  0.74230  0.20396  1.0000
  C  Sn50      1.0  0.89425  0.76133  0.23272  1.0000
  C  Sn51      1.0  0.87169  0.75369  0.25808  1.0000
  C   C194      1.0  0.85014  0.72718  0.25412  1.0000
  C  Sn52      1.0  0.85066  0.70813  0.22536  1.0000
  O  Te49      1.0  0.87419  0.69708  0.17105  1.0000
  O  Te50      1.0  0.91605  0.78773  0.23610  1.0000
  O  Te51      1.0  0.87074  0.77241  0.28705  1.0000
  O  Te52      1.0  0.82888  0.68175  0.22198  1.0000
  Mg  Mg25      1.0  0.90533  0.80589  0.28012  1.0000
  Mg  Mg26      1.0  0.83960  0.66356  0.17798  1.0000
  C  Sn53      1.0  0.36603  0.21994  0.69615  1.0000
  C   C195      1.0  0.38916  0.24458  0.70269  1.0000
  C  Sn54      1.0  0.38971  0.26059  0.73324  1.0000
  C  Sn55      1.0  0.36669  0.25178  0.75777  1.0000
  C   C196      1.0  0.34358  0.22716  0.75124  1.0000
  C  Sn56      1.0  0.34300  0.21114  0.72069  1.0000
  O  Te53      1.0  0.36593  0.20427  0.66544  1.0000
  O  Te54      1.0  0.41306  0.28514  0.73919  1.0000
  O  Te55      1.0  0.36681  0.26748  0.78850  1.0000
  O  Te56      1.0  0.31968  0.18659  0.71473  1.0000
  Mg  Mg27      1.0  0.40337  0.29935  0.78487  1.0000
  Mg  Mg28      1.0  0.32936  0.17236  0.66908  1.0000
  C  Sn57      1.0  0.38489  0.73380  0.76243  1.0000
  C   C197      1.0  0.40087  0.75420  0.78522  1.0000
  C  Sn58      1.0  0.38612  0.78325  0.79618  1.0000
  C  Sn59      1.0  0.35473  0.79209  0.78412  1.0000
  C   C198      1.0  0.33876  0.77170  0.76135  1.0000
  C  Sn60      1.0  0.35349  0.74264  0.75037  1.0000
  O  Te57      1.0  0.40009  0.70487  0.75181  1.0000
  O  Te58      1.0  0.40259  0.80325  0.81897  1.0000
  O  Te59      1.0  0.33953  0.82104  0.79476  1.0000
  O  Te60      1.0  0.33704  0.72265  0.72760  1.0000
  Mg  Mg29      1.0  0.37177  0.84017  0.82601  1.0000
  Mg  Mg30      1.0  0.36783  0.68571  0.72056  1.0000
  C  Sn61      1.0  0.88722  0.23608  0.25722  1.0000
  C   C199      1.0  0.90077  0.25445  0.28313  1.0000
  C  Sn62      1.0  0.88254  0.27914  0.29855  1.0000
  C  Sn63      1.0  0.85009  0.28559  0.28788  1.0000
  C   C200      1.0  0.83656  0.26722  0.26200  1.0000
  C  Sn64      1.0  0.85477  0.24253  0.24655  1.0000
  O  Te61      1.0  0.90589  0.21152  0.24216  1.0000
  O  Te62      1.0  0.89661  0.29718  0.32439  1.0000
  O  Te63      1.0  0.83142  0.31017  0.30297  1.0000
  O  Te64      1.0  0.84071  0.22449  0.22074  1.0000
  Mg  Mg31      1.0  0.86137  0.32808  0.33712  1.0000
  Mg  Mg32      1.0  0.87592  0.19358  0.20800  1.0000
  C  Sn65      1.0  0.69906  0.62993  0.28017  1.0000
  C   C201      1.0  0.70507  0.60562  0.25647  1.0000
  C  Sn66      1.0  0.73558  0.60363  0.24118  1.0000
  C  Sn67      1.0  0.76062  0.62640  0.24976  1.0000
  C   C202      1.0  0.75461  0.65069  0.27345  1.0000
  C  Sn68      1.0  0.72410  0.65271  0.28876  1.0000
  O  Te65      1.0  0.66837  0.63146  0.29515  1.0000
  O  Te66      1.0  0.74101  0.57911  0.21755  1.0000
  O  Te67      1.0  0.79133  0.62486  0.23476  1.0000
  O  Te68      1.0  0.71867  0.67720  0.31238  1.0000
  Mg  Mg33      1.0  0.78687  0.58706  0.20405  1.0000
  Mg  Mg34      1.0  0.67282  0.66926  0.32590  1.0000
  C  Sn69      1.0  0.23742  0.13634  0.73269  1.0000
  C   C203      1.0  0.23800  0.15468  0.76192  1.0000
  C  Sn70      1.0  0.22345  0.14233  0.79044  1.0000
  C  Sn71      1.0  0.20802  0.11098  0.78973  1.0000
  C   C204      1.0  0.20745  0.09266  0.76051  1.0000
  C  Sn72      1.0  0.22198  0.10500  0.73198  1.0000
  O  Te69      1.0  0.25212  0.14918  0.70448  1.0000
  O  Te70      1.0  0.22433  0.16112  0.81937  1.0000
  O  Te71      1.0  0.19331  0.09816  0.81797  1.0000
  O  Te72      1.0  0.22111  0.08622  0.70306  1.0000
  Mg  Mg35      1.0  0.20091  0.13303  0.85141  1.0000
  Mg  Mg36      1.0  0.24454  0.11428  0.67102  1.0000
  C  Sn73      1.0  0.25363  0.10891  0.25936  1.0000
  C   C205      1.0  0.28110  0.09723  0.24257  1.0000
  C  Sn74      1.0  0.29764  0.11746  0.22036  1.0000
  C  Sn75      1.0  0.28651  0.15006  0.21481  1.0000
  C   C206      1.0  0.25906  0.16172  0.23160  1.0000
  C  Sn76      1.0  0.24250  0.14150  0.25382  1.0000
  O  Te73      1.0  0.23747  0.08825  0.28146  1.0000
  O  Te74      1.0  0.32504  0.10523  0.20386  1.0000
  O  Te75      1.0  0.30270  0.17071  0.19269  1.0000
  O  Te76      1.0  0.21512  0.15372  0.27031  1.0000
  Mg  Mg37      1.0  0.33882  0.14281  0.17617  1.0000
  Mg  Mg38      1.0  0.20133  0.11617  0.29802  1.0000
  C  Sn77      1.0  0.80278  0.63169  0.71981  1.0000
  C   C207      1.0  0.80039  0.61096  0.74713  1.0000
  C  Sn78      1.0  0.77280  0.61205  0.76735  1.0000
  C  Sn79      1.0  0.74707  0.63430  0.76012  1.0000
  C   C208      1.0  0.74946  0.65500  0.73282  1.0000
  C  Sn80      1.0  0.77704  0.65394  0.71258  1.0000
  O  Te77      1.0  0.83057  0.63018  0.69993  1.0000
  O  Te78      1.0  0.77097  0.59109  0.79452  1.0000
  O  Te79      1.0  0.71926  0.63579  0.78003  1.0000
  O  Te80      1.0  0.77887  0.67487  0.68542  1.0000
  Mg  Mg39      1.0  0.72813  0.60230  0.81422  1.0000
  Mg  Mg40      1.0  0.82170  0.66367  0.66570  1.0000
  C  Sn81      1.0  0.24211  0.86274  0.76865  1.0000
  C   C209      1.0  0.24000  0.84210  0.74106  1.0000
  C  Sn82      1.0  0.22166  0.85148  0.71355  1.0000
  C  Sn83      1.0  0.20510  0.88216  0.71360  1.0000
  C   C210      1.0  0.20722  0.90280  0.74117  1.0000
  C  Sn84      1.0  0.22555  0.89342  0.76870  1.0000
  O  Te81      1.0  0.26058  0.85286  0.79588  1.0000
  O  Te82      1.0  0.21991  0.83042  0.68626  1.0000
  O  Te83      1.0  0.18661  0.89204  0.68634  1.0000
  O  Te84      1.0  0.22731  0.91447  0.79597  1.0000
  Mg  Mg41      1.0  0.19168  0.85484  0.65506  1.0000
  Mg  Mg42      1.0  0.25554  0.89008  0.82717  1.0000
  C  Sn85      1.0  0.74181  0.36304  0.26858  1.0000
  C   C211      1.0  0.73899  0.34156  0.24170  1.0000
  C  Sn86      1.0  0.72095  0.35064  0.21388  1.0000
  C  Sn87      1.0  0.70543  0.38185  0.21290  1.0000
  C   C212      1.0  0.70826  0.40331  0.23977  1.0000
  C  Sn88      1.0  0.72628  0.39425  0.26760  1.0000
  O  Te85      1.0  0.75996  0.35345  0.29614  1.0000
  O  Te86      1.0  0.71848  0.32875  0.18731  1.0000
  O  Te87      1.0  0.68727  0.39142  0.18531  1.0000
  O  Te88      1.0  0.72877  0.41613  0.29416  1.0000
  Mg  Mg43      1.0  0.69106  0.35305  0.15529  1.0000
  Mg  Mg44      1.0  0.75619  0.39186  0.32618  1.0000
  C  Sn89      1.0  0.77937  0.36543  0.79407  1.0000
  C   C213      1.0  0.75465  0.35163  0.77447  1.0000
  C  Sn90      1.0  0.75108  0.36105  0.74158  1.0000
  C  Sn91      1.0  0.77270  0.38474  0.72799  1.0000
  C   C214      1.0  0.79740  0.39852  0.74758  1.0000
  C  Sn92      1.0  0.80098  0.38912  0.78048  1.0000
  O  Te89      1.0  0.78247  0.35564  0.82689  1.0000
  O  Te90      1.0  0.72618  0.34692  0.72247  1.0000
  O  Te91      1.0  0.76957  0.39452  0.69514  1.0000
  O  Te92      1.0  0.82587  0.40323  0.79958  1.0000
  Mg  Mg45      1.0  0.73184  0.36823  0.67905  1.0000
  Mg  Mg46      1.0  0.82024  0.38193  0.84300  1.0000
  C  Sn93      1.0  0.30490  0.86973  0.28106  1.0000
  C   C215      1.0  0.30086  0.89154  0.25480  1.0000
  C  Sn94      1.0  0.27259  0.89032  0.23536  1.0000
  C  Sn95      1.0  0.24782  0.86684  0.24232  1.0000
  C   C216      1.0  0.25186  0.84505  0.26858  1.0000
  C  Sn96      1.0  0.28013  0.84625  0.28803  1.0000
  O  Te93      1.0  0.33337  0.87139  0.30017  1.0000
  O  Te94      1.0  0.26911  0.91237  0.20923  1.0000
  O  Te95      1.0  0.21934  0.86519  0.22319  1.0000
  O  Te96      1.0  0.28361  0.82422  0.31415  1.0000
  Mg  Mg47      1.0  0.22591  0.90046  0.19030  1.0000
  Mg  Mg48      1.0  0.32679  0.83611  0.33310  1.0000
  C  Sn97      1.0  0.95967  0.53453  0.89786  1.0000
  C   C217      1.0  0.98543  0.51585  0.91061  1.0000
  C  Sn98      1.0  0.00067  0.49194  0.89116  1.0000
  C  Sn99      1.0  0.98995  0.48660  0.85827  1.0000
  C   C218      1.0  0.96420  0.50528  0.84554  1.0000
  C  Sn100     1.0  0.94895  0.52919  0.86497  1.0000
  O  Te97      1.0  0.94480  0.55830  0.91775  1.0000
  O  Te98      1.0  0.02637  0.47357  0.90445  1.0000
  O  Te99      1.0  0.00484  0.46281  0.83839  1.0000
  O  Te100     1.0  0.92326  0.54756  0.85170  1.0000
  Mg  Mg49      1.0  0.03886  0.44405  0.86763  1.0000
  Mg  Mg50      1.0  0.91077  0.57709  0.88849  1.0000
  C  Sn101     1.0  0.45490  0.03037  0.40039  1.0000
  C   C219      1.0  0.48376  0.01521  0.41094  1.0000
  C  Sn102     1.0  0.50554  0.99757  0.38867  1.0000
  C  Sn103     1.0  0.49579  0.99504  0.35517  1.0000
  C   C220      1.0  0.46446  0.01020  0.34464  1.0000
  C  Sn104     1.0  0.44515  0.02784  0.36689  1.0000
  O  Te101     1.0  0.43600  0.04788  0.42308  1.0000
  O  Te102     1.0  0.53428  0.98261  0.39980  1.0000
  O  Te103     1.0  0.51471  0.97751  0.33248  1.0000
  O  Te104     1.0  0.41643  0.04280  0.35578  1.0000
  Mg  Mg51      1.0  0.55179  0.96147  0.35950  1.0000
  Mg  Mg52      1.0  0.39891  0.06396  0.39605  1.0000
  C  Sn105     1.0  0.53909  0.45821  0.36837  1.0000
  C   C221      1.0  0.53654  0.48553  0.34766  1.0000
  C  Sn106     1.0  0.51939  0.51350  0.35780  1.0000
  C  Sn107     1.0  0.50448  0.51421  0.38932  1.0000
  C   C222      1.0  0.50703  0.48691  0.41001  1.0000
  C  Sn108     1.0  0.52418  0.45892  0.39988  1.0000
  O  Te105     1.0  0.55636  0.43051  0.35772  1.0000
  O  Te106     1.0  0.51717  0.54050  0.33666  1.0000
  O  Te107     1.0  0.48720  0.54194  0.39995  1.0000
  O  Te108     1.0  0.52640  0.43194  0.42101  1.0000
  Mg  Mg53      1.0  0.49103  0.57257  0.36231  1.0000
  Mg  Mg54      1.0  0.55255  0.39987  0.39539  1.0000
  C  Sn109     1.0  0.99190  0.00666  0.87477  1.0000
  C   C223      1.0  0.99769  0.97997  0.89617  1.0000
  C  Sn110     1.0  0.02569  0.96030  0.89522  1.0000
  C  Sn111     1.0  0.05094  0.96747  0.87242  1.0000
  C   C224      1.0  0.04764  0.99415  0.85104  1.0000
  C  Sn112     1.0  0.01715  0.01383  0.85197  1.0000
  O  Te109     1.0  0.96370  0.02600  0.87615  1.0000
  O  Te110     1.0  0.02842  0.93374  0.91686  1.0000
  O  Te111     1.0  0.07915  0.94811  0.87106  1.0000
  O  Te112     1.0  0.01442  0.04038  0.83036  1.0000
  Mg  Mg55      1.0  0.07152  0.91465  0.90556  1.0000
  Mg  Mg56      1.0  0.97134  0.05950  0.84164  1.0000
  C  Sn113     1.0  0.46193  0.96165  0.13095  1.0000
  C   C225      1.0  0.46265  0.98983  0.15086  1.0000
  C  Sn114     1.0  0.47520  0.01866  0.13978  1.0000
  C  Sn115     1.0  0.48981  0.01934  0.10814  1.0000
  C   C226      1.0  0.49158  0.99118  0.08824  1.0000
  C  Sn116     1.0  0.47655  0.96233  0.09930  1.0000
  O  Te113     1.0  0.44675  0.93310  0.14252  1.0000
  O  Te114     1.0  0.47562  0.04652  0.16014  1.0000
  O  Te115     1.0  0.50500  0.04793  0.09657  1.0000
  O  Te116     1.0  0.47612  0.93448  0.07897  1.0000
  Mg  Mg57      1.0  0.49923  0.07955  0.13337  1.0000
  Mg  Mg58      1.0  0.45249  0.90145  0.10570  1.0000
  C  Sn117     1.0  0.95724  0.46055  0.62929  1.0000
  C   C227      1.0  0.96146  0.48683  0.65130  1.0000
  C  Sn118     1.0  0.98036  0.51412  0.64249  1.0000
  C  Sn119     1.0  0.99533  0.51518  0.61102  1.0000
  C   C228      1.0  0.99110  0.48893  0.58904  1.0000
  C  Sn120     1.0  0.97221  0.46162  0.59783  1.0000
  O  Te117     1.0  0.93824  0.43352  0.63862  1.0000
  O  Te118     1.0  0.98425  0.54008  0.66491  1.0000
  O  Te119     1.0  0.01435  0.54225  0.60171  1.0000
  O  Te120     1.0  0.96832  0.43567  0.57542  1.0000
  Mg  Mg59      1.0  0.01240  0.57153  0.64079  1.0000
  Mg  Mg60      1.0  0.94016  0.40422  0.59950  1.0000
  C  Sn121     1.0  0.01012  0.98104  0.63316  1.0000
  C   C229      1.0  0.03891  0.99611  0.64437  1.0000
  C  Sn122     1.0  0.04763  0.02514  0.62983  1.0000
  C  Sn123     1.0  0.02969  0.03943  0.60355  1.0000
  C   C230      1.0  0.00092  0.02437  0.59236  1.0000
  C  Sn124     1.0  0.99219  0.99533  0.60688  1.0000
  O  Te121     1.0  0.99937  0.95203  0.64807  1.0000
  O  Te122     1.0  0.07648  0.03975  0.64145  1.0000
  O  Te123     1.0  0.04047  0.06847  0.58864  1.0000
  O  Te124     1.0  0.96335  0.98073  0.59528  1.0000
  Mg  Mg61      1.0  0.08115  0.07911  0.61316  1.0000
  Mg  Mg62      1.0  0.95865  0.94138  0.62355  1.0000
  C  Sn125     1.0  0.54014  0.54080  0.10519  1.0000
  C   C231      1.0  0.51566  0.52155  0.09050  1.0000
  C  Sn126     1.0  0.50259  0.49449  0.10710  1.0000
  C  Sn127     1.0  0.51421  0.48650  0.13906  1.0000
  C   C232      1.0  0.53868  0.50574  0.15373  1.0000
  C  Sn128     1.0  0.55177  0.53281  0.13715  1.0000
  O  Te125     1.0  0.55285  0.56775  0.08814  1.0000
  O  Te126     1.0  0.47813  0.47561  0.09191  1.0000
  O  Te127     1.0  0.50148  0.45952  0.15611  1.0000
  O  Te128     1.0  0.57620  0.55169  0.15232  1.0000
  Mg  Mg63      1.0  0.46851  0.44132  0.12509  1.0000
  Mg  Mg64      1.0  0.58583  0.58599  0.11918  1.0000
  C  Sn129     1.0  0.49825  0.87552  0.01012  1.0000
  C   C233      1.0  0.52102  0.90020  0.00294  1.0000
  C  Sn130     1.0  0.53958  0.90567  0.97204  1.0000
  C  Sn131     1.0  0.53156  0.88166  0.94779  1.0000
  C   C234      1.0  0.50880  0.85700  0.95497  1.0000
  C  Sn132     1.0  0.49387  0.85583  0.98587  1.0000
  O  Te129     1.0  0.48364  0.87485  0.04117  1.0000
  O  Te130     1.0  0.56228  0.93057  0.96544  1.0000
  O  Te131     1.0  0.54620  0.88235  0.91672  1.0000
  O  Te132     1.0  0.47118  0.83095  0.99247  1.0000
  Mg  Mg65      1.0  0.57561  0.92111  0.91950  1.0000
  Mg  Mg66      1.0  0.45419  0.83607  0.03840  1.0000
  C  Sn133     1.0  0.98947  0.37782  0.50376  1.0000
  C   C235      1.0  0.01616  0.39923  0.50095  1.0000
  C  Sn134     1.0  0.03602  0.39828  0.47301  1.0000
  C  Sn135     1.0  0.02905  0.37547  0.44733  1.0000
  C   C236      1.0  0.00237  0.35408  0.45014  1.0000
  C  Sn136     1.0  0.98250  0.35501  0.47808  1.0000
  O  Te133     1.0  0.96995  0.37921  0.53192  1.0000
  O  Te134     1.0  0.06257  0.41992  0.47077  1.0000
  O  Te135     1.0  0.04860  0.37410  0.41916  1.0000
  O  Te136     1.0  0.95596  0.33340  0.48033  1.0000
  Mg  Mg67      1.0  0.08197  0.40861  0.42753  1.0000
  Mg  Mg68      1.0  0.93654  0.34469  0.52354  1.0000
  C  Sn137     1.0  0.45577  0.36640  0.53600  1.0000
  C   C237      1.0  0.48326  0.34602  0.53470  1.0000
  C  Sn138     1.0  0.51137  0.35613  0.51800  1.0000
  C  Sn139     1.0  0.51202  0.38729  0.50230  1.0000
  C   C238      1.0  0.48454  0.40766  0.50361  1.0000
  C  Sn140     1.0  0.45642  0.39756  0.52029  1.0000
  O  Te137     1.0  0.42793  0.35579  0.55282  1.0000
  O  Te138     1.0  0.53855  0.33532  0.51704  1.0000
  O  Te139     1.0  0.53989  0.39789  0.48546  1.0000
  O  Te140     1.0  0.42926  0.41835  0.52127  1.0000
  Mg  Mg69      1.0  0.57074  0.36078  0.49106  1.0000
  Mg  Mg70      1.0  0.39706  0.39293  0.54725  1.0000
  C  Sn141     1.0  0.96448  0.89673  0.04253  1.0000
  C   C239      1.0  0.98141  0.90893  0.01529  1.0000
  C  Sn142     1.0  0.00757  0.89344  0.99866  1.0000
  C  Sn143     1.0  0.00964  0.85643  0.00946  1.0000
  C   C240      1.0  0.99271  0.84425  0.03667  1.0000
  C  Sn144     1.0  0.97019  0.86404  0.05333  1.0000
  O  Te141     1.0  0.94208  0.91696  0.05879  1.0000
  O  Te142     1.0  0.02421  0.90619  0.97150  1.0000
  O  Te143     1.0  0.03571  0.84052  0.99317  1.0000
  O  Te144     1.0  0.95355  0.85131  0.08047  1.0000
  Mg  Mg71      1.0  0.05232  0.86905  0.95746  1.0000
  Mg  Mg72      1.0  0.92543  0.88842  0.09451  1.0000
  C  Sn145     1.0  0.00616  0.12338  0.50478  1.0000
  C   C241      1.0  0.98182  0.09984  0.49868  1.0000
  C  Sn146     1.0  0.96476  0.09968  0.46878  1.0000
  C  Sn147     1.0  0.97219  0.12353  0.44445  1.0000
  C   C242      1.0  0.99651  0.14704  0.45055  1.0000
  C  Sn148     1.0  0.01359  0.14723  0.48045  1.0000
  O  Te145     1.0  0.02290  0.12308  0.53485  1.0000
  O  Te146     1.0  0.94053  0.07591  0.46325  1.0000
  O  Te147     1.0  0.95542  0.12381  0.41437  1.0000
  O  Te148     1.0  0.03781  0.17098  0.48598  1.0000
  Mg  Mg73      1.0  0.92451  0.08642  0.41840  1.0000
  Mg  Mg74      1.0  0.05385  0.16048  0.53081  1.0000
  C  Sn149     1.0  0.45868  0.63362  0.96028  1.0000
  C   C243      1.0  0.48670  0.65339  0.96200  1.0000
  C  Sn150     1.0  0.51446  0.64259  0.97898  1.0000
  C  Sn151     1.0  0.51421  0.61137  0.99455  1.0000
  C   C244      1.0  0.48621  0.59161  0.99283  1.0000
  C  Sn152     1.0  0.45844  0.60239  0.97586  1.0000
  O  Te149     1.0  0.43122  0.64491  0.94317  1.0000
  O  Te150     1.0  0.54218  0.66281  0.98036  1.0000
  O  Te151     1.0  0.53807  0.59577  0.01167  1.0000
  O  Te152     1.0  0.43074  0.58220  0.97446  1.0000
  Mg  Mg75      1.0  0.56992  0.63222  0.00660  1.0000
  Mg  Mg76      1.0  0.39934  0.60843  0.94822  1.0000
  C  Sn153     1.0  0.99376  0.62299  0.99477  1.0000
  C   C245      1.0  0.02016  0.60156  0.99900  1.0000
  C  Sn154     1.0  0.03503  0.59810  0.02801  1.0000
  C  Sn155     1.0  0.02697  0.62084  0.05334  1.0000
  C   C246      1.0  0.00059  0.64225  0.04911  1.0000
  C  Sn156     1.0  0.98207  0.64141  0.02010  1.0000
  O  Te153     1.0  0.97559  0.62170  0.96557  1.0000
  O  Te154     1.0  0.06131  0.57643  0.03166  1.0000
  O  Te155     1.0  0.04516  0.62211  0.08256  1.0000
  O  Te156     1.0  0.95579  0.66305  0.01645  1.0000
  Mg  Mg77      1.0  0.07869  0.58760  0.07595  1.0000
  Mg  Mg78      1.0  0.94203  0.65621  0.97218  1.0000
  C  Sn157     1.0  0.47532  0.12616  0.52337  1.0000
  C   C247      1.0  0.49435  0.14085  0.54810  1.0000
  C  Sn158     1.0  0.52718  0.13212  0.55206  1.0000
  C  Sn159     1.0  0.54130  0.10824  0.53084  1.0000
  C   C248      1.0  0.52227  0.09357  0.50613  1.0000
  C  Sn160     1.0  0.48943  0.10228  0.50215  1.0000
  O  Te157     1.0  0.44254  0.13526  0.51986  1.0000
  O  Te158     1.0  0.54572  0.14713  0.57697  1.0000
  O  Te159     1.0  0.57410  0.09915  0.53437  1.0000
  O  Te160     1.0  0.47090  0.08729  0.47726  1.0000
  Mg  Mg79      1.0  0.58931  0.12653  0.57193  1.0000
  Mg  Mg80      1.0  0.42731  0.10788  0.48226  1.0000
  C  Sn161     1.0  0.89555  0.95830  0.53590  1.0000
  C   C249      1.0  0.90887  0.98357  0.51684  1.0000
  C  Sn162     1.0  0.89026  0.99840  0.49208  1.0000
  C  Sn163     1.0  0.85764  0.98775  0.48626  1.0000
  C   C250      1.0  0.84433  0.96249  0.50531  1.0000
  C  Sn164     1.0  0.86294  0.94765  0.53008  1.0000
  O  Te161     1.0  0.91461  0.94383  0.56052  1.0000
  O  Te162     1.0  0.90161  0.02361  0.47334  1.0000
  O  Te163     1.0  0.83609  0.00224  0.46161  1.0000
  O  Te164     1.0  0.84910  0.92245  0.54882  1.0000
  Mg  Mg81      1.0  0.86585  0.03566  0.44264  1.0000
  Mg  Mg82      1.0  0.88483  0.91040  0.57953  1.0000
  C  Sn165     1.0  0.37636  0.50698  0.99125  1.0000
  C   C251      1.0  0.39417  0.49950  0.01795  1.0000
  C  Sn166     1.0  0.39433  0.47075  0.03676  1.0000
  C  Sn167     1.0  0.37260  0.44459  0.02869  1.0000
  C   C252      1.0  0.35117  0.44775  0.00201  1.0000
  C  Sn168     1.0  0.35463  0.48082  0.98319  1.0000
  O  Te165     1.0  0.37662  0.53595  0.97280  1.0000
  O  Te166     1.0  0.41600  0.46817  0.06334  1.0000
  O  Te167     1.0  0.37236  0.41561  0.04718  1.0000
  O  Te168     1.0  0.33298  0.48341  0.95662  1.0000
  Mg  Mg83      1.0  0.40644  0.42380  0.08105  1.0000
  Mg  Mg84      1.0  0.34253  0.52775  0.93888  1.0000
  C  Sn169     1.0  0.39651  0.54088  0.46700  1.0000
  C   C253      1.0  0.40675  0.51131  0.48120  1.0000
  C  Sn170     1.0  0.38483  0.49207  0.49921  1.0000
  C  Sn171     1.0  0.35198  0.50260  0.50310  1.0000
  C   C254      1.0  0.34175  0.53214  0.48891  1.0000
  C  Sn172     1.0  0.36366  0.55140  0.47089  1.0000
  O  Te169     1.0  0.41884  0.55971  0.44909  1.0000
  O  Te170     1.0  0.39565  0.46261  0.51319  1.0000
  O  Te171     1.0  0.32965  0.48373  0.52103  1.0000
  O  Te172     1.0  0.35286  0.58084  0.45692  1.0000
  Mg  Mg85      1.0  0.35604  0.44550  0.53536  1.0000
  Mg  Mg86      1.0  0.39244  0.59796  0.43472  1.0000
  C  Sn173     1.0  0.89633  0.04280  0.96449  1.0000
  C   C255      1.0  0.90964  0.01709  0.98298  1.0000
  C  Sn174     1.0  0.88993  0.99736  0.00734  1.0000
  C  Sn175     1.0  0.85489  0.00783  0.01333  1.0000
  C   C256      1.0  0.84524  0.03783  0.99483  1.0000
  C  Sn176     1.0  0.86378  0.05327  0.97047  1.0000
  O  Te173     1.0  0.91533  0.05786  0.94026  1.0000
  O  Te174     1.0  0.90377  0.97172  0.02552  1.0000
  O  Te175     1.0  0.83839  0.99275  0.03758  1.0000
  O  Te176     1.0  0.84996  0.07889  0.95229  1.0000
  Mg  Mg87      1.0  0.86811  0.95892  0.05584  1.0000
  Mg  Mg88      1.0  0.88559  0.09170  0.92196  1.0000
  C  Sn177     1.0  0.10619  0.45796  0.96457  1.0000
  C   C257      1.0  0.09335  0.48424  0.98271  1.0000
  C  Sn178     1.0  0.10893  0.49617  0.00628  1.0000
  C  Sn179     1.0  0.14166  0.48596  0.01181  1.0000
  C   C258      1.0  0.15812  0.46401  0.99367  1.0000
  C  Sn180     1.0  0.13892  0.44774  0.97010  1.0000
  O  Te177     1.0  0.08654  0.44207  0.94113  1.0000
  O  Te178     1.0  0.09555  0.52238  0.02412  1.0000
  O  Te179     1.0  0.16131  0.50187  0.03527  1.0000
  O  Te180     1.0  0.15229  0.42156  0.95227  1.0000
  Mg  Mg89      1.0  0.13204  0.53624  0.05333  1.0000
  Mg  Mg90      1.0  0.11583  0.40769  0.92304  1.0000
  C  Sn181     1.0  0.62607  0.00885  0.50527  1.0000
  C   C259      1.0  0.60231  0.00278  0.48111  1.0000
  C  Sn182     1.0  0.60421  0.97276  0.46413  1.0000
  C  Sn183     1.0  0.62784  0.94829  0.47147  1.0000
  C   C260      1.0  0.65158  0.95437  0.49561  1.0000
  C  Sn184     1.0  0.65220  0.98438  0.51260  1.0000
  O  Te181     1.0  0.62620  0.03903  0.52194  1.0000
  O  Te182     1.0  0.58022  0.96726  0.44008  1.0000
  O  Te183     1.0  0.62769  0.91809  0.45477  1.0000
  O  Te184     1.0  0.67616  0.98988  0.53665  1.0000
  Mg  Mg91      1.0  0.59014  0.92222  0.42411  1.0000
  Mg  Mg92      1.0  0.66376  0.03490  0.55265  1.0000
  C  Sn185     1.0  0.60231  0.04757  0.03196  1.0000
  C   C261      1.0  0.58861  0.02120  0.01441  1.0000
  C  Sn186     1.0  0.61075  0.00844  0.99105  1.0000
  C  Sn187     1.0  0.64365  0.01792  0.98513  1.0000
  C   C262      1.0  0.65369  0.03995  0.00268  1.0000
  C  Sn188     1.0  0.63520  0.05704  0.02603  1.0000
  O  Te185     1.0  0.58335  0.06428  0.05520  1.0000
  O  Te186     1.0  0.59901  0.98217  0.97381  1.0000
  O  Te187     1.0  0.66509  0.00118  0.96187  1.0000
  O  Te188     1.0  0.64942  0.08330  0.04328  1.0000
  Mg  Mg93      1.0  0.63477  0.96704  0.94466  1.0000
  Mg  Mg94      1.0  0.61370  0.09843  0.07245  1.0000
  C  Sn189     1.0  0.12969  0.54053  0.54261  1.0000
  C   C263      1.0  0.15116  0.53624  0.51621  1.0000
  C  Sn190     1.0  0.14170  0.51766  0.48870  1.0000
  C  Sn191     1.0  0.11012  0.50309  0.48754  1.0000
  C   C264      1.0  0.08867  0.50739  0.51393  1.0000
  C  Sn192     1.0  0.09810  0.52596  0.54145  1.0000
  O  Te189     1.0  0.13965  0.55921  0.56986  1.0000
  O  Te190     1.0  0.16360  0.51370  0.46261  1.0000
  O  Te191     1.0  0.10016  0.48440  0.46026  1.0000
  O  Te192     1.0  0.07623  0.52993  0.56753  1.0000
  Mg  Mg95      1.0  0.13870  0.48609  0.43087  1.0000
  Mg  Mg96      1.0  0.10109  0.55754  0.59927  1.0000
