data_image0
_chemical_formula_structural       NC2BOCH3C6H5NC2BOCH3C6H5NC2BOCH3C6H5NC2BOCH3C6H5NC2BOCH4NC2BOCH4NC2BOCH4NC2BOCH3C6H5NC2BOCH4NC2BOCH3C6H5NC2BOCH4NC2BOCH3C6H5NC2BOCH4NC2BOCH3C6H5NC2BOCH4NC2BOCH4NC2BOCH3C6H5NC2BOCH4NC2BOCH3C6H5NC2BOCH4NC2BOCH3C6H5NC2BOCH4NC2BOCH4NC2BOCH3C6H5NC2BOCH3C6H5NC2BOCH3C6H5NC2BOCH3C6H5NC2BOCH4NC2BOCH3C6H5NC2BOCH4NC2BOCH3C6H5NC2BOCH3C6H5NC2BOCH4NC2BOCH3C6H5NC2BOCH4NC2BOCH4NC2BOCH4NC2BOCH4NC2BOCH4NC2BOCH3C6H5NC2BOCH4NC2BOCH4NC2BOCH3C6H5NC2BOCH3C6H5NC2BOCH3C6H5NC2BOCH3C6H5NC2BOCH4NC2BOCH4C26Sn2C2HTe2HMgC2Sn2C2HTe2HMgC2Sn2C2HTe2HMgC2Sn2C2HTe2HMgC2Sn2C2HTe2HMgC2Sn2C2HTe2HMgC2Sn2C2HTe2HMgC2Sn2C2HTe2HMgC2Sn2C2HTe2HMgC2Sn2C2HTe2HMgC2Sn2C2HTe2HMgC2Sn2C2HTe2HMgC2Sn2C2HTe2HMgC2Sn2C2HTe2HMgC2Sn2C2HTe2HMgC2Sn2C2HTe2HMgC2Sn2C2HTe2HMgC2Sn2C2HTe2HMgC2Sn2C2HTe2HMgC2Sn2C2HTe2HMgC2Sn2C2HTe2HMgC2Sn2C2HTe2HMgC2Sn2C2HTe2HMgC2Sn2C2HTe2HMg
_chemical_formula_sum              "N48 C408 B48 O48 H336 Sn48 Te48 Mg24"
_cell_length_a       40.8487
_cell_length_b       40.5784
_cell_length_c       40.5707
_cell_angle_alpha    90.247
_cell_angle_beta     90.2094
_cell_angle_gamma    90.1439

_symmetry_space_group_name_H-M    'P1'
_space_group_IT_number       1

loop_
  _space_group_symop_operation_xyz
  'x, y, z'

loop_
  _atom_site_type_symbol
  _atom_site_label
  _atom_site_symmetry_multiplicity
  _atom_site_fract_x
  _atom_site_fract_y
  _atom_site_fract_z
  _atom_site_occupancy
  N   N1        1.0  0.26724  0.33270  0.94162  1.0000
  C   C1        1.0  0.25200  0.30574  0.93518  1.0000
  C   C2        1.0  0.25917  0.35202  0.97115  1.0000
  B   B1        1.0  0.27839  0.22874  0.81601  1.0000
  O   O1        1.0  0.29409  0.80641  0.74170  1.0000
  C   C3        1.0  0.62448  0.47776  0.21233  1.0000
  H   H1        1.0  0.63984  0.48239  0.19066  1.0000
  H   H2        1.0  0.60909  0.45622  0.20665  1.0000
  H   H3        1.0  0.93484  0.52338  0.74575  1.0000
  C   C4        1.0  0.25602  0.70777  0.59956  1.0000
  C   C5        1.0  0.26929  0.74498  0.65736  1.0000
  C   C6        1.0  0.23448  0.73272  0.60987  1.0000
  C   C7        1.0  0.24108  0.75110  0.63827  1.0000
  C   C8        1.0  0.28420  0.70132  0.61855  1.0000
  C   C9        1.0  0.29056  0.71960  0.64693  1.0000
  H   H4        1.0  0.23275  0.29545  0.95110  1.0000
  H   H5        1.0  0.21251  0.73751  0.59536  1.0000
  H   H6        1.0  0.22432  0.77047  0.64590  1.0000
  H   H7        1.0  0.30057  0.68185  0.61033  1.0000
  H   H8        1.0  0.31243  0.71455  0.66145  1.0000
  N   N2        1.0  0.76607  0.83461  0.44036  1.0000
  C   C10       1.0  0.74637  0.81272  0.42881  1.0000
  C   C11       1.0  0.75690  0.85337  0.47001  1.0000
  B   B2        1.0  0.77899  0.73316  0.31316  1.0000
  O   O2        1.0  0.79175  0.30344  0.24324  1.0000
  C   C12       1.0  0.12345  0.97516  0.71214  1.0000
  H   H9        1.0  0.13925  0.98028  0.69091  1.0000
  H   H10       1.0  0.10845  0.95354  0.70573  1.0000
  H   H11       1.0  0.43500  0.02284  0.24486  1.0000
  C   C13       1.0  0.75818  0.21105  0.09623  1.0000
  C   C14       1.0  0.76924  0.24596  0.15578  1.0000
  C   C15       1.0  0.73994  0.23946  0.10371  1.0000
  C   C16       1.0  0.74531  0.25654  0.13315  1.0000
  C   C17       1.0  0.78208  0.20020  0.11876  1.0000
  C   C18       1.0  0.78752  0.21749  0.14792  1.0000
  H   H12       1.0  0.72266  0.80679  0.44025  1.0000
  H   H13       1.0  0.72150  0.24795  0.08627  1.0000
  H   H14       1.0  0.73105  0.27847  0.13878  1.0000
  H   H15       1.0  0.79598  0.17819  0.11259  1.0000
  H   H16       1.0  0.80619  0.20916  0.16517  1.0000
  N   N3        1.0  0.23449  0.66351  0.43907  1.0000
  C   C19       1.0  0.25188  0.68845  0.43060  1.0000
  C   C20       1.0  0.24278  0.64539  0.46929  1.0000
  B   B3        1.0  0.22530  0.76490  0.31146  1.0000
  O   O3        1.0  0.20471  0.19492  0.24029  1.0000
  C   C21       1.0  0.87474  0.52375  0.71361  1.0000
  H   H17       1.0  0.85903  0.51850  0.69217  1.0000
  H   H18       1.0  0.88954  0.54553  0.70755  1.0000
  H   H19       1.0  0.56487  0.48042  0.24445  1.0000
  C   C22       1.0  0.24672  0.29549  0.10238  1.0000
  C   C23       1.0  0.23188  0.25719  0.15844  1.0000
  C   C24       1.0  0.26755  0.26975  0.11213  1.0000
  C   C25       1.0  0.26011  0.25077  0.13968  1.0000
  C   C26       1.0  0.21859  0.30230  0.12113  1.0000
  C   C27       1.0  0.21143  0.28347  0.14870  1.0000
  H   H20       1.0  0.27287  0.69747  0.44520  1.0000
  H   H21       1.0  0.28951  0.26479  0.09781  1.0000
  H   H22       1.0  0.27618  0.23066  0.14688  1.0000
  H   H23       1.0  0.20298  0.32255  0.11337  1.0000
  H   H24       1.0  0.18964  0.28877  0.16312  1.0000
  N   N4        1.0  0.73543  0.16591  0.93666  1.0000
  C   C28       1.0  0.75242  0.19113  0.92829  1.0000
  C   C29       1.0  0.74344  0.14789  0.96695  1.0000
  B   B4        1.0  0.72335  0.26690  0.80956  1.0000
  O   O4        1.0  0.70877  0.69849  0.74501  1.0000
  C   C30       1.0  0.37491  0.02368  0.21250  1.0000
  H   H25       1.0  0.35955  0.01849  0.19079  1.0000
  H   H26       1.0  0.38954  0.04567  0.20685  1.0000
  H   H27       1.0  0.06323  0.97576  0.74362  1.0000
  C   C31       1.0  0.74413  0.79130  0.59952  1.0000
  C   C32       1.0  0.73094  0.75446  0.65705  1.0000
  C   C33       1.0  0.76700  0.76833  0.61138  1.0000
  C   C34       1.0  0.76040  0.75005  0.63964  1.0000
  C   C35       1.0  0.71453  0.79574  0.61665  1.0000
  C   C36       1.0  0.70828  0.77777  0.64500  1.0000
  H   H28       1.0  0.77300  0.20084  0.94307  1.0000
  H   H29       1.0  0.79001  0.76502  0.59827  1.0000
  H   H30       1.0  0.77818  0.73224  0.64860  1.0000
  H   H31       1.0  0.69712  0.81357  0.60704  1.0000
  H   H32       1.0  0.68544  0.78140  0.65826  1.0000
  N   N5        1.0  0.73193  0.83268  0.55912  1.0000
  C   C37       1.0  0.75167  0.81064  0.56993  1.0000
  C   C38       1.0  0.74115  0.85239  0.53027  1.0000
  B   B5        1.0  0.72306  0.73424  0.68839  1.0000
  O   O5        1.0  0.70762  0.30503  0.75492  1.0000
  C   C39       1.0  0.37557  0.97921  0.28724  1.0000
  H   H33       1.0  0.36035  0.98414  0.30897  1.0000
  H   H34       1.0  0.39083  0.95773  0.29302  1.0000
  H   H35       1.0  0.06285  0.01849  0.75318  1.0000
  H   H36       1.0  0.77537  0.80510  0.55826  1.0000
  N   N6        1.0  0.23500  0.33659  0.06156  1.0000
  C   C40       1.0  0.25451  0.31452  0.07270  1.0000
  C   C41       1.0  0.24409  0.35472  0.03163  1.0000
  B   B6        1.0  0.22282  0.23551  0.18840  1.0000
  O   O6        1.0  0.21122  0.80165  0.25525  1.0000
  C   C42       1.0  0.87581  0.47938  0.78842  1.0000
  H   H37       1.0  0.86069  0.48451  0.81017  1.0000
  H   H38       1.0  0.89084  0.45773  0.79418  1.0000
  H   H39       1.0  0.56630  0.52290  0.25482  1.0000
  H   H40       1.0  0.27792  0.30827  0.06080  1.0000
  N   N7        1.0  0.76670  0.16644  0.05796  1.0000
  C   C43       1.0  0.75176  0.19327  0.06521  1.0000
  C   C44       1.0  0.75836  0.14837  0.02762  1.0000
  B   B7        1.0  0.77608  0.26551  0.18798  1.0000
  O   O7        1.0  0.79671  0.69315  0.26018  1.0000
  C   C45       1.0  0.12185  0.01954  0.78735  1.0000
  H   H41       1.0  0.13664  0.01457  0.80944  1.0000
  H   H42       1.0  0.10675  0.04126  0.79276  1.0000
  H   H43       1.0  0.43480  0.98019  0.25424  1.0000
  H   H44       1.0  0.73307  0.20450  0.04921  1.0000
  N   N8        1.0  0.26712  0.66543  0.55943  1.0000
  C   C46       1.0  0.24865  0.68897  0.56932  1.0000
  C   C47       1.0  0.25808  0.64633  0.52985  1.0000
  B   B8        1.0  0.27714  0.76592  0.68850  1.0000
  O   O8        1.0  0.29052  0.19332  0.75832  1.0000
  C   C48       1.0  0.62571  0.52198  0.28771  1.0000
  H   H45       1.0  0.64075  0.51654  0.30951  1.0000
  H   H46       1.0  0.61122  0.54402  0.29350  1.0000
  H   H47       1.0  0.93526  0.48072  0.75514  1.0000
  C   C49       1.0  0.25908  0.28646  0.90526  1.0000
  C   C50       1.0  0.27154  0.24892  0.84775  1.0000
  C   C51       1.0  0.24059  0.25800  0.89821  1.0000
  C   C52       1.0  0.24669  0.23957  0.86980  1.0000
  C   C53       1.0  0.28408  0.29595  0.88342  1.0000
  C   C54       1.0  0.29014  0.27741  0.85524  1.0000
  H   H48       1.0  0.22622  0.69654  0.55623  1.0000
  H   H49       1.0  0.22125  0.25060  0.91506  1.0000
  H   H50       1.0  0.23216  0.21767  0.86442  1.0000
  H   H51       1.0  0.29815  0.31802  0.88929  1.0000
  H   H52       1.0  0.30950  0.28484  0.83844  1.0000
  N   N9        1.0  0.93962  0.26664  0.33388  1.0000
  C   C55       1.0  0.92825  0.24657  0.31214  1.0000
  C   C56       1.0  0.96916  0.25767  0.35262  1.0000
  B   B9        1.0  0.81056  0.27593  0.23549  1.0000
  O   O9        1.0  0.74194  0.29459  0.80185  1.0000
  C   C57       1.0  0.21289  0.62372  0.47747  1.0000
  H   H53       1.0  0.19145  0.63929  0.48222  1.0000
  H   H54       1.0  0.20703  0.60825  0.45594  1.0000
  H   H55       1.0  0.74477  0.93434  0.52363  1.0000
  H   H56       1.0  0.93987  0.22281  0.30613  1.0000
  N   N10       1.0  0.44319  0.76963  0.83183  1.0000
  C   C58       1.0  0.42746  0.74762  0.81532  1.0000
  C   C59       1.0  0.47117  0.75975  0.85247  1.0000
  B   B10       1.0  0.31267  0.77852  0.73477  1.0000
  O   O10       1.0  0.24485  0.79178  0.30311  1.0000
  C   C60       1.0  0.71332  0.12649  0.97491  1.0000
  H   H57       1.0  0.69204  0.14228  0.97973  1.0000
  H   H58       1.0  0.70738  0.11133  0.95320  1.0000
  H   H59       1.0  0.24785  0.43639  0.01965  1.0000
  C   C61       1.0  0.10052  0.75649  0.20890  1.0000
  C   C62       1.0  0.15960  0.76783  0.24372  1.0000
  C   C63       1.0  0.10850  0.73747  0.23668  1.0000
  C   C64       1.0  0.13770  0.74300  0.25375  1.0000
  C   C65       1.0  0.12250  0.78103  0.19837  1.0000
  C   C66       1.0  0.15146  0.78656  0.21560  1.0000
  H   H60       1.0  0.43414  0.72133  0.81526  1.0000
  H   H61       1.0  0.09156  0.71843  0.24485  1.0000
  H   H62       1.0  0.14371  0.72828  0.27529  1.0000
  H   H63       1.0  0.11594  0.79543  0.17679  1.0000
  H   H64       1.0  0.16827  0.80576  0.20759  1.0000
  N   N11       1.0  0.43697  0.23495  0.66602  1.0000
  C   C67       1.0  0.42871  0.25092  0.69205  1.0000
  C   C68       1.0  0.46716  0.24339  0.64839  1.0000
  B   B11       1.0  0.31030  0.22015  0.76658  1.0000
  O   O11       1.0  0.24197  0.20843  0.19668  1.0000
  C   C69       1.0  0.71167  0.87461  0.52233  1.0000
  H   H65       1.0  0.69017  0.85930  0.51653  1.0000
  H   H66       1.0  0.70561  0.88936  0.54424  1.0000
  H   H67       1.0  0.24481  0.56311  0.47977  1.0000
  H   H68       1.0  0.44356  0.27095  0.70285  1.0000
  N   N12       1.0  0.94212  0.73260  0.16715  1.0000
  C   C70       1.0  0.93294  0.75069  0.19141  1.0000
  C   C71       1.0  0.97122  0.74193  0.14804  1.0000
  B   B12       1.0  0.81582  0.72047  0.26827  1.0000
  O   O12       1.0  0.74184  0.70693  0.69679  1.0000
  C   C72       1.0  0.21472  0.37667  0.02282  1.0000
  H   H69       1.0  0.19299  0.36128  0.01831  1.0000
  H   H70       1.0  0.20922  0.39264  0.04402  1.0000
  H   H71       1.0  0.74452  0.06592  0.97634  1.0000
  C   C73       1.0  0.60082  0.74771  0.79260  1.0000
  C   C74       1.0  0.65808  0.73349  0.75638  1.0000
  C   C75       1.0  0.60994  0.76756  0.76583  1.0000
  C   C76       1.0  0.63815  0.76047  0.74792  1.0000
  C   C77       1.0  0.62072  0.72085  0.80140  1.0000
  C   C78       1.0  0.64883  0.71394  0.78354  1.0000
  H   H72       1.0  0.94610  0.77313  0.19930  1.0000
  H   H73       1.0  0.59463  0.78844  0.75912  1.0000
  H   H74       1.0  0.64490  0.77578  0.72704  1.0000
  H   H75       1.0  0.61327  0.70587  0.82225  1.0000
  H   H76       1.0  0.66400  0.69298  0.79025  1.0000
  N   N13       1.0  0.56132  0.73680  0.83479  1.0000
  C   C79       1.0  0.57053  0.75488  0.81067  1.0000
  C   C80       1.0  0.53136  0.74488  0.85295  1.0000
  B   B13       1.0  0.68894  0.72491  0.73603  1.0000
  O   O13       1.0  0.75988  0.70601  0.30464  1.0000
  C   C81       1.0  0.28907  0.37419  0.97842  1.0000
  H   H77       1.0  0.31054  0.35893  0.98405  1.0000
  H   H78       1.0  0.29478  0.38833  0.95613  1.0000
  H   H79       1.0  0.75398  0.06600  0.01908  1.0000
  H   H80       1.0  0.55667  0.77643  0.80196  1.0000
  N   N14       1.0  0.05872  0.23422  0.33265  1.0000
  C   C82       1.0  0.06759  0.25207  0.30822  1.0000
  C   C83       1.0  0.02930  0.24269  0.35156  1.0000
  B   B14       1.0  0.18581  0.22242  0.23281  1.0000
  O   O14       1.0  0.25976  0.20097  0.80828  1.0000
  C   C84       1.0  0.78660  0.87505  0.47897  1.0000
  H   H81       1.0  0.80787  0.85937  0.48421  1.0000
  H   H82       1.0  0.79286  0.89022  0.45753  1.0000
  H   H83       1.0  0.25412  0.56442  0.52254  1.0000
  C   C85       1.0  0.39814  0.24351  0.70962  1.0000
  C   C86       1.0  0.34046  0.22921  0.74533  1.0000
  C   C87       1.0  0.38925  0.26284  0.73699  1.0000
  C   C88       1.0  0.36080  0.25580  0.75451  1.0000
  C   C89       1.0  0.37766  0.21721  0.69987  1.0000
  C   C90       1.0  0.34936  0.21025  0.71749  1.0000
  H   H84       1.0  0.05392  0.27389  0.29982  1.0000
  H   H85       1.0  0.40483  0.28341  0.74441  1.0000
  H   H86       1.0  0.35415  0.27074  0.77578  1.0000
  H   H87       1.0  0.38480  0.20267  0.67850  1.0000
  H   H88       1.0  0.33380  0.18968  0.71004  1.0000
  N   N15       1.0  0.06158  0.76623  0.16535  1.0000
  C   C91       1.0  0.06944  0.75038  0.19150  1.0000
  C   C92       1.0  0.03118  0.75802  0.14766  1.0000
  B   B15       1.0  0.19093  0.77547  0.26399  1.0000
  O   O15       1.0  0.25796  0.79304  0.69659  1.0000
  C   C93       1.0  0.78757  0.12565  0.02004  1.0000
  H   H89       1.0  0.80950  0.14049  0.01501  1.0000
  H   H90       1.0  0.79279  0.11080  0.04201  1.0000
  H   H91       1.0  0.25732  0.43441  0.97705  1.0000
  H   H92       1.0  0.05385  0.73115  0.20240  1.0000
  N   N16       1.0  0.55671  0.26940  0.66699  1.0000
  C   C94       1.0  0.56544  0.25290  0.69243  1.0000
  C   C95       1.0  0.52701  0.25982  0.64875  1.0000
  B   B16       1.0  0.68777  0.27841  0.76339  1.0000
  O   O16       1.0  0.75687  0.29251  0.19646  1.0000
  C   C96       1.0  0.28745  0.62389  0.52217  1.0000
  H   H93       1.0  0.30917  0.63896  0.51693  1.0000
  H   H94       1.0  0.29309  0.60905  0.54404  1.0000
  H   H95       1.0  0.75451  0.93557  0.48107  1.0000
  H   H96       1.0  0.55110  0.23216  0.70229  1.0000
  N   N17       1.0  0.33495  0.94125  0.26638  1.0000
  C   C97       1.0  0.31240  0.93043  0.24705  1.0000
  C   C98       1.0  0.35358  0.97098  0.25743  1.0000
  B   B17       1.0  0.23754  0.81063  0.27536  1.0000
  O   O17       1.0  0.80691  0.74024  0.29489  1.0000
  C   C99       1.0  0.47587  0.21301  0.62729  1.0000
  H   H97       1.0  0.48113  0.19192  0.64335  1.0000
  H   H98       1.0  0.45445  0.20637  0.61221  1.0000
  H   H99       1.0  0.52152  0.74622  0.93512  1.0000
  C   C100      1.0  0.71153  0.59659  0.25786  1.0000
  C   C101      1.0  0.74867  0.65409  0.27090  1.0000
  C   C102      1.0  0.73937  0.60392  0.23897  1.0000
  C   C103      1.0  0.75765  0.63231  0.24539  1.0000
  C   C104      1.0  0.70230  0.61823  0.28338  1.0000
  C   C105      1.0  0.72066  0.64642  0.28973  1.0000
  H   H100      1.0  0.30552  0.94269  0.22385  1.0000
  H   H101      1.0  0.74640  0.58720  0.21916  1.0000
  H   H102      1.0  0.77922  0.63781  0.23072  1.0000
  H   H103      1.0  0.68062  0.61214  0.29764  1.0000
  H   H104      1.0  0.71356  0.66299  0.30960  1.0000
  N   N18       1.0  0.83439  0.44189  0.76759  1.0000
  C   C106      1.0  0.81351  0.43044  0.74675  1.0000
  C   C107      1.0  0.85367  0.47121  0.75871  1.0000
  B   B18       1.0  0.73443  0.31363  0.77442  1.0000
  O   O18       1.0  0.30346  0.23832  0.79492  1.0000
  C   C108      1.0  0.97908  0.71244  0.12540  1.0000
  H   H105      1.0  0.98440  0.69061  0.14039  1.0000
  H   H106      1.0  0.95731  0.70670  0.11042  1.0000
  H   H107      1.0  0.02246  0.24502  0.43345  1.0000
  H   H108      1.0  0.80887  0.44181  0.72256  1.0000
  N   N19       1.0  0.66459  0.43930  0.23324  1.0000
  C   C109      1.0  0.68745  0.42924  0.25247  1.0000
  C   C110      1.0  0.64628  0.46921  0.24215  1.0000
  B   B19       1.0  0.76485  0.31178  0.22383  1.0000
  O   O19       1.0  0.19499  0.24267  0.20679  1.0000
  C   C111      1.0  0.52338  0.71461  0.87426  1.0000
  H   H109      1.0  0.51854  0.69315  0.85836  1.0000
  H   H110      1.0  0.54497  0.70876  0.88932  1.0000
  H   H111      1.0  0.47708  0.24367  0.56624  1.0000
  C   C112      1.0  0.29133  0.10012  0.24419  1.0000
  C   C113      1.0  0.25381  0.15706  0.23061  1.0000
  C   C114      1.0  0.26500  0.10898  0.26463  1.0000
  C   C115      1.0  0.24647  0.13698  0.25783  1.0000
  C   C116      1.0  0.29894  0.12009  0.21694  1.0000
  C   C117      1.0  0.28049  0.14806  0.21042  1.0000
  H   H112      1.0  0.69446  0.44217  0.27539  1.0000
  H   H113      1.0  0.25919  0.09371  0.28586  1.0000
  H   H114      1.0  0.22594  0.14352  0.27355  1.0000
  H   H115      1.0  0.31942  0.11293  0.20141  1.0000
  H   H116      1.0  0.28630  0.16332  0.18922  1.0000
  N   N20       1.0  0.16377  0.93781  0.73389  1.0000
  C   C118      1.0  0.18588  0.92770  0.75394  1.0000
  C   C119      1.0  0.14455  0.96708  0.74251  1.0000
  B   B20       1.0  0.26633  0.81334  0.72304  1.0000
  O   O20       1.0  0.69664  0.74316  0.70814  1.0000
  C   C120      1.0  0.02184  0.21273  0.37350  1.0000
  H   H117      1.0  0.01681  0.19099  0.35805  1.0000
  H   H118      1.0  0.04362  0.20715  0.38840  1.0000
  H   H119      1.0  0.97900  0.74554  0.06579  1.0000
  H   H120      1.0  0.19156  0.94008  0.77751  1.0000
  N   N21       1.0  0.83372  0.56081  0.73493  1.0000
  C   C121      1.0  0.81330  0.57271  0.75577  1.0000
  C   C122      1.0  0.85329  0.53175  0.74373  1.0000
  B   B21       1.0  0.73479  0.68896  0.72510  1.0000
  O   O21       1.0  0.30383  0.75820  0.70844  1.0000
  C   C123      1.0  0.97740  0.28738  0.37486  1.0000
  H   H121      1.0  0.98202  0.30921  0.35962  1.0000
  H   H122      1.0  0.95599  0.29286  0.39022  1.0000
  H   H123      1.0  0.02126  0.75570  0.06562  1.0000
  C   C124      1.0  0.20561  0.89851  0.74636  1.0000
  C   C125      1.0  0.24486  0.84348  0.73145  1.0000
  C   C126      1.0  0.23149  0.88964  0.76740  1.0000
  C   C127      1.0  0.25102  0.86254  0.75986  1.0000
  C   C128      1.0  0.19920  0.87954  0.71791  1.0000
  C   C129      1.0  0.21853  0.85241  0.71071  1.0000
  H   H124      1.0  0.80904  0.56192  0.78029  1.0000
  H   H125      1.0  0.23619  0.90423  0.78953  1.0000
  H   H126      1.0  0.27123  0.85576  0.77599  1.0000
  H   H127      1.0  0.17888  0.88687  0.70217  1.0000
  H   H128      1.0  0.21355  0.83771  0.68875  1.0000
  N   N22       1.0  0.33453  0.06128  0.23380  1.0000
  C   C130      1.0  0.31013  0.07016  0.25155  1.0000
  C   C131      1.0  0.35313  0.03152  0.24240  1.0000
  B   B22       1.0  0.23290  0.18782  0.22244  1.0000
  O   O22       1.0  0.80205  0.25659  0.20835  1.0000
  C   C132      1.0  0.47874  0.78925  0.87529  1.0000
  H   H129      1.0  0.48366  0.81122  0.86038  1.0000
  H   H130      1.0  0.45715  0.79464  0.89045  1.0000
  H   H131      1.0  0.51925  0.25415  0.56678  1.0000
  H   H132      1.0  0.30168  0.05625  0.27320  1.0000
  N   N23       1.0  0.16417  0.05629  0.76803  1.0000
  C   C133      1.0  0.18475  0.06829  0.74747  1.0000
  C   C134      1.0  0.14444  0.02749  0.75817  1.0000
  B   B23       1.0  0.26547  0.18336  0.77931  1.0000
  O   O23       1.0  0.69652  0.25854  0.78991  1.0000
  C   C135      1.0  0.02249  0.78803  0.12617  1.0000
  H   H133      1.0  0.01724  0.80948  0.14189  1.0000
  H   H134      1.0  0.04383  0.79437  0.11106  1.0000
  H   H135      1.0  0.98009  0.25448  0.43492  1.0000
  H   H136      1.0  0.18858  0.05790  0.72264  1.0000
  N   N24       1.0  0.66671  0.55924  0.26676  1.0000
  C   C136      1.0  0.69266  0.56653  0.25061  1.0000
  C   C137      1.0  0.64788  0.52959  0.25803  1.0000
  B   B24       1.0  0.76905  0.68545  0.27867  1.0000
  O   O24       1.0  0.19840  0.75684  0.29175  1.0000
  C   C138      1.0  0.51879  0.28879  0.62580  1.0000
  H   H137      1.0  0.51313  0.31084  0.64050  1.0000
  H   H138      1.0  0.54054  0.29452  0.61103  1.0000
  H   H139      1.0  0.47908  0.75540  0.93445  1.0000
  C   C139      1.0  0.29402  0.90012  0.25438  1.0000
  C   C140      1.0  0.25798  0.84190  0.26741  1.0000
  C   C141      1.0  0.26936  0.88937  0.23255  1.0000
  C   C142      1.0  0.25157  0.86074  0.23903  1.0000
  C   C143      1.0  0.30068  0.88144  0.28280  1.0000
  C   C144      1.0  0.28300  0.85284  0.28903  1.0000
  H   H140      1.0  0.70237  0.55118  0.23046  1.0000
  H   H141      1.0  0.26421  0.90374  0.21052  1.0000
  H   H142      1.0  0.23240  0.85277  0.22207  1.0000
  H   H143      1.0  0.31984  0.89010  0.29945  1.0000
  H   H144      1.0  0.28825  0.83852  0.31104  1.0000
  N   N25       1.0  0.58349  0.51846  0.19119  1.0000
  C   C145      1.0  0.56437  0.49745  0.17728  1.0000
  C   C146      1.0  0.60333  0.50826  0.21971  1.0000
  B   B25       1.0  0.48303  0.53032  0.06323  1.0000
  O   O25       1.0  0.05666  0.54286  0.99277  1.0000
  C   C147      1.0  0.72746  0.87594  0.46284  1.0000
  H   H145      1.0  0.73292  0.89166  0.44157  1.0000
  H   H146      1.0  0.70575  0.86118  0.45643  1.0000
  H   H147      1.0  0.77299  0.18542  0.99247  1.0000
  C   C148      1.0  0.95880  0.50481  0.85048  1.0000
  C   C149      1.0  0.99659  0.51711  0.90785  1.0000
  C   C150      1.0  0.98342  0.48267  0.86021  1.0000
  C   C151      1.0  0.00214  0.48885  0.88841  1.0000
  C   C152      1.0  0.95292  0.53302  0.86987  1.0000
  C   C153      1.0  0.97141  0.53887  0.89810  1.0000
  H   H148      1.0  0.56177  0.47177  0.18569  1.0000
  H   H149      1.0  0.98785  0.46069  0.84538  1.0000
  H   H150      1.0  0.02132  0.47172  0.89562  1.0000
  H   H151      1.0  0.93373  0.54981  0.86199  1.0000
  H   H152      1.0  0.96671  0.56067  0.91303  1.0000
  N   N26       1.0  0.08425  0.01303  0.68815  1.0000
  C   C154      1.0  0.05675  0.99927  0.68127  1.0000
  C   C155      1.0  0.10120  0.00500  0.71898  1.0000
  B   B26       1.0  0.98489  0.02545  0.55962  1.0000
  O   O26       1.0  0.55329  0.04247  0.49481  1.0000
  C   C156      1.0  0.22965  0.37424  0.96312  1.0000
  H   H153      1.0  0.23468  0.38867  0.94086  1.0000
  H   H154      1.0  0.20796  0.35898  0.95798  1.0000
  H   H155      1.0  0.27212  0.68334  0.49443  1.0000
  C   C157      1.0  0.45941  0.00820  0.34919  1.0000
  C   C158      1.0  0.49412  0.01848  0.40896  1.0000
  C   C159      1.0  0.48763  0.98976  0.35641  1.0000
  C   C160      1.0  0.50462  0.99474  0.38591  1.0000
  C   C161      1.0  0.44846  0.03172  0.37224  1.0000
  C   C162      1.0  0.46564  0.03675  0.40149  1.0000
  H   H156      1.0  0.04432  0.98195  0.69788  1.0000
  H   H157      1.0  0.49615  0.97158  0.33859  1.0000
  H   H158      1.0  0.52649  0.98039  0.39117  1.0000
  H   H159      1.0  0.42657  0.04577  0.36634  1.0000
  H   H160      1.0  0.45729  0.05523  0.41904  1.0000
  N   N27       1.0  0.91535  0.48539  0.69056  1.0000
  C   C163      1.0  0.93864  0.50418  0.68075  1.0000
  C   C164      1.0  0.89712  0.49405  0.72052  1.0000
  B   B27       1.0  0.01387  0.47481  0.56196  1.0000
  O   O27       1.0  0.44284  0.45223  0.48688  1.0000
  C   C165      1.0  0.77270  0.12499  0.96013  1.0000
  H   H161      1.0  0.76747  0.10941  0.93853  1.0000
  H   H162      1.0  0.79453  0.13973  0.95437  1.0000
  H   H163      1.0  0.72744  0.81539  0.49415  1.0000
  C   C166      1.0  0.54169  0.49529  0.34900  1.0000
  C   C167      1.0  0.50460  0.48145  0.40595  1.0000
  C   C168      1.0  0.51666  0.51675  0.35911  1.0000
  C   C169      1.0  0.49832  0.50986  0.38718  1.0000
  C   C170      1.0  0.54818  0.46683  0.36764  1.0000
  C   C171      1.0  0.52993  0.46018  0.39564  1.0000
  H   H164      1.0  0.94634  0.52663  0.69408  1.0000
  H   H165      1.0  0.51168  0.53880  0.34471  1.0000
  H   H166      1.0  0.47881  0.52643  0.39474  1.0000
  H   H167      1.0  0.56758  0.45049  0.35936  1.0000
  H   H168      1.0  0.53485  0.43808  0.40992  1.0000
  N   N28       1.0  0.41677  0.98521  0.19039  1.0000
  C   C172      1.0  0.43690  0.00642  0.17862  1.0000
  C   C173      1.0  0.39719  0.99399  0.21953  1.0000
  B   B28       1.0  0.51504  0.97804  0.06142  1.0000
  O   O28       1.0  0.94637  0.95835  0.99338  1.0000
  C   C174      1.0  0.27214  0.62261  0.46236  1.0000
  H   H169      1.0  0.26669  0.60690  0.44089  1.0000
  H   H170      1.0  0.29389  0.63733  0.45634  1.0000
  H   H171      1.0  0.22982  0.31575  0.99813  1.0000
  H   H172      1.0  0.44069  0.03108  0.18951  1.0000
  N   N29       1.0  0.08031  0.98079  0.80829  1.0000
  C   C175      1.0  0.05778  0.00034  0.81826  1.0000
  C   C176      1.0  0.09989  0.98966  0.77935  1.0000
  B   B29       1.0  0.98225  0.97196  0.93682  1.0000
  O   O29       1.0  0.55216  0.96169  0.00649  1.0000
  C   C177      1.0  0.22806  0.62456  0.53726  1.0000
  H   H173      1.0  0.23281  0.60962  0.55927  1.0000
  H   H174      1.0  0.20666  0.64002  0.54260  1.0000
  H   H175      1.0  0.27221  0.31555  0.00775  1.0000
  C   C178      1.0  0.45654  0.99923  0.14916  1.0000
  C   C179      1.0  0.49446  0.98607  0.09243  1.0000
  C   C180      1.0  0.47989  0.02221  0.13819  1.0000
  C   C181      1.0  0.49874  0.01557  0.11034  1.0000
  C   C182      1.0  0.45225  0.96956  0.13152  1.0000
  C   C183      1.0  0.47081  0.96329  0.10360  1.0000
  H   H176      1.0  0.05160  0.02362  0.80581  1.0000
  H   H177      1.0  0.48323  0.04523  0.15173  1.0000
  H   H178      1.0  0.51697  0.03331  0.10213  1.0000
  H   H179      1.0  0.43409  0.95209  0.14041  1.0000
  H   H180      1.0  0.46731  0.94040  0.08994  1.0000
  N   N30       1.0  0.58407  0.48408  0.30968  1.0000
  C   C184      1.0  0.56052  0.50270  0.31912  1.0000
  C   C185      1.0  0.60288  0.49260  0.28011  1.0000
  B   B30       1.0  0.48372  0.47260  0.43644  1.0000
  O   O30       1.0  0.05219  0.45825  0.50809  1.0000
  C   C186      1.0  0.72819  0.12669  0.03472  1.0000
  H   H181      1.0  0.73274  0.11152  0.05660  1.0000
  H   H182      1.0  0.70695  0.14233  0.04019  1.0000
  H   H183      1.0  0.76966  0.81471  0.50445  1.0000
  H   H184      1.0  0.55299  0.52509  0.30585  1.0000
  N   N31       1.0  0.41526  0.01732  0.31074  1.0000
  C   C187      1.0  0.44204  0.00242  0.31785  1.0000
  C   C188      1.0  0.39756  0.00926  0.28017  1.0000
  B   B31       1.0  0.51421  0.02568  0.44075  1.0000
  O   O31       1.0  0.94652  0.04149  0.50509  1.0000
  C   C189      1.0  0.27401  0.37696  0.03813  1.0000
  H   H185      1.0  0.26917  0.39333  0.05918  1.0000
  H   H186      1.0  0.29550  0.36207  0.04459  1.0000
  H   H187      1.0  0.22974  0.68397  0.50381  1.0000
  C   C190      1.0  0.03957  0.00556  0.65008  1.0000
  C   C191      1.0  0.00494  0.01759  0.59103  1.0000
  C   C192      1.0  0.01024  0.98865  0.64322  1.0000
  C   C193      1.0  0.99324  0.99451  0.61400  1.0000
  C   C194      1.0  0.05176  0.02828  0.62702  1.0000
  C   C195      1.0  0.03458  0.03421  0.59806  1.0000
  H   H188      1.0  0.45358  0.98423  0.30140  1.0000
  H   H189      1.0  0.00090  0.97098  0.66102  1.0000
  H   H190      1.0  0.97049  0.98143  0.60879  1.0000
  H   H191      1.0  0.07459  0.04095  0.63277  1.0000
  H   H192      1.0  0.04383  0.05206  0.58040  1.0000
  N   N32       1.0  0.91727  0.51807  0.81050  1.0000
  C   C196      1.0  0.93954  0.49817  0.82050  1.0000
  C   C197      1.0  0.89785  0.50934  0.78109  1.0000
  B   B32       1.0  0.01776  0.52526  0.93867  1.0000
  O   O32       1.0  0.44498  0.54646  0.00845  1.0000
  C   C198      1.0  0.77097  0.87440  0.53839  1.0000
  H   H193      1.0  0.76582  0.88942  0.56035  1.0000
  H   H194      1.0  0.79242  0.85915  0.54409  1.0000
  H   H195      1.0  0.73048  0.18641  0.00139  1.0000
  C   C199      1.0  0.54414  0.50616  0.14859  1.0000
  C   C200      1.0  0.50448  0.52160  0.09352  1.0000
  C   C201      1.0  0.52098  0.48337  0.13658  1.0000
  C   C202      1.0  0.50119  0.49111  0.10965  1.0000
  C   C203      1.0  0.54746  0.53682  0.13277  1.0000
  C   C204      1.0  0.52811  0.54415  0.10555  1.0000
  H   H196      1.0  0.94546  0.47499  0.80761  1.0000
  H   H197      1.0  0.51857  0.45956  0.14865  1.0000
  H   H198      1.0  0.48311  0.47345  0.10068  1.0000
  H   H199      1.0  0.56555  0.55414  0.14231  1.0000
  H   H200      1.0  0.53102  0.56771  0.09314  1.0000
  N   N33       1.0  0.51495  0.19018  0.58686  1.0000
  C   C205      1.0  0.49522  0.17865  0.56494  1.0000
  C   C206      1.0  0.50566  0.22005  0.60524  1.0000
  B   B33       1.0  0.52502  0.06044  0.48808  1.0000
  O   O33       1.0  0.54071  0.99838  0.05171  1.0000
  C   C207      1.0  0.87555  0.46405  0.72872  1.0000
  H   H201      1.0  0.89113  0.44262  0.73383  1.0000
  H   H202      1.0  0.86064  0.45792  0.70696  1.0000
  H   H203      1.0  0.18139  0.99228  0.77280  1.0000
  H   H204      1.0  0.47167  0.19034  0.55875  1.0000
  N   N34       1.0  0.01752  0.69094  0.08365  1.0000
  C   C208      1.0  0.99793  0.67987  0.06142  1.0000
  C   C209      1.0  0.00848  0.72021  0.10305  1.0000
  B   B34       1.0  0.02904  0.56143  0.98507  1.0000
  O   O34       1.0  0.04179  0.49323  0.55477  1.0000
  C   C210      1.0  0.37550  0.96394  0.22738  1.0000
  H   H205      1.0  0.39101  0.94241  0.23223  1.0000
  H   H206      1.0  0.36038  0.95804  0.20567  1.0000
  H   H207      1.0  0.68459  0.49359  0.27136  1.0000
  C   C211      1.0  0.00357  0.35074  0.45683  1.0000
  C   C212      1.0  0.01668  0.40831  0.49429  1.0000
  C   C213      1.0  0.98151  0.36137  0.48119  1.0000
  C   C214      1.0  0.98812  0.38965  0.49975  1.0000
  C   C215      1.0  0.03215  0.36928  0.45110  1.0000
  C   C216      1.0  0.03844  0.39758  0.46947  1.0000
  H   H208      1.0  0.97442  0.69168  0.05528  1.0000
  H   H209      1.0  0.95925  0.34722  0.48556  1.0000
  H   H210      1.0  0.97113  0.39755  0.51880  1.0000
  H   H211      1.0  0.04885  0.36074  0.43207  1.0000
  H   H212      1.0  0.06059  0.41179  0.46496  1.0000
  N   N35       1.0  0.48439  0.69190  0.91514  1.0000
  C   C217      1.0  0.50425  0.68084  0.93700  1.0000
  C   C218      1.0  0.49348  0.72134  0.89623  1.0000
  B   B35       1.0  0.47185  0.56596  0.01694  1.0000
  O   O35       1.0  0.45656  0.49147  0.44493  1.0000
  C   C219      1.0  0.12173  0.95976  0.77168  1.0000
  H   H213      1.0  0.10632  0.93825  0.76591  1.0000
  H   H214      1.0  0.13607  0.95369  0.79379  1.0000
  H   H215      1.0  0.81573  0.49633  0.73017  1.0000
  H   H216      1.0  0.52806  0.69242  0.94265  1.0000
  N   N36       1.0  0.98439  0.18931  0.41408  1.0000
  C   C220      1.0  0.00126  0.18082  0.43936  1.0000
  C   C221      1.0  0.99248  0.21963  0.39622  1.0000
  B   B36       1.0  0.97460  0.05978  0.51227  1.0000
  O   O36       1.0  0.95583  0.99172  0.94543  1.0000
  C   C222      1.0  0.62404  0.46231  0.27189  1.0000
  H   H217      1.0  0.60822  0.44097  0.26661  1.0000
  H   H218      1.0  0.63884  0.45612  0.29365  1.0000
  H   H219      1.0  0.31560  0.99606  0.22882  1.0000
  H   H220      1.0  0.02172  0.19561  0.44928  1.0000
  N   N37       1.0  0.98349  0.81025  0.08545  1.0000
  C   C223      1.0  0.00129  0.81955  0.06117  1.0000
  C   C224      1.0  0.99263  0.78052  0.10398  1.0000
  B   B37       1.0  0.97198  0.93764  0.98433  1.0000
  O   O37       1.0  0.95604  0.00830  0.55313  1.0000
  C   C225      1.0  0.62611  0.53743  0.22800  1.0000
  H   H221      1.0  0.61147  0.55956  0.23290  1.0000
  H   H222      1.0  0.64159  0.54277  0.20656  1.0000
  H   H223      1.0  0.31599  0.00564  0.27153  1.0000
  H   H224      1.0  0.02331  0.80617  0.05308  1.0000
  N   N38       1.0  0.48057  0.30879  0.58301  1.0000
  C   C226      1.0  0.50030  0.31871  0.56056  1.0000
  C   C227      1.0  0.48954  0.28023  0.60329  1.0000
  B   B38       1.0  0.47124  0.43453  0.48031  1.0000
  O   O38       1.0  0.45661  0.51047  0.05410  1.0000
  C   C228      1.0  0.12308  0.03482  0.72770  1.0000
  H   H225      1.0  0.10786  0.05660  0.73253  1.0000
  H   H226      1.0  0.13839  0.04042  0.70624  1.0000
  H   H227      1.0  0.81611  0.50614  0.77281  1.0000
  H   H228      1.0  0.52381  0.30656  0.55522  1.0000
  N   N39       1.0  0.01653  0.30960  0.41608  1.0000
  C   C229      1.0  0.99640  0.32075  0.43760  1.0000
  C   C230      1.0  0.00753  0.28025  0.39655  1.0000
  B   B39       1.0  0.02467  0.43936  0.51527  1.0000
  O   O39       1.0  0.04527  0.50673  0.94667  1.0000
  C   C231      1.0  0.37545  0.03896  0.27227  1.0000
  H   H229      1.0  0.39050  0.06081  0.26716  1.0000
  H   H230      1.0  0.36054  0.04466  0.29402  1.0000
  H   H231      1.0  0.68460  0.50326  0.22876  1.0000
  H   H232      1.0  0.97264  0.30901  0.44288  1.0000
  N   N40       1.0  0.51631  0.81196  0.91638  1.0000
  C   C232      1.0  0.50086  0.81915  0.94291  1.0000
  C   C233      1.0  0.50831  0.78191  0.89779  1.0000
  B   B40       1.0  0.52662  0.94112  0.01595  1.0000
  O   O40       1.0  0.54205  0.00734  0.44818  1.0000
  C   C234      1.0  0.87584  0.53911  0.77341  1.0000
  H   H233      1.0  0.89109  0.56080  0.76816  1.0000
  H   H234      1.0  0.86133  0.54490  0.79542  1.0000
  H   H235      1.0  0.18266  0.00220  0.73030  1.0000
  C   C235      1.0  0.50264  0.14848  0.54629  1.0000
  C   C236      1.0  0.51635  0.09095  0.50935  1.0000
  C   C237      1.0  0.48072  0.13740  0.52179  1.0000
  C   C238      1.0  0.48759  0.10909  0.50350  1.0000
  C   C239      1.0  0.53135  0.13037  0.55249  1.0000
  C   C240      1.0  0.53792  0.10205  0.53435  1.0000
  H   H236      1.0  0.48172  0.80332  0.95355  1.0000
  H   H237      1.0  0.45842  0.15132  0.51712  1.0000
  H   H238      1.0  0.47070  0.10084  0.48434  1.0000
  H   H239      1.0  0.54796  0.13926  0.57159  1.0000
  H   H240      1.0  0.56013  0.08808  0.53911  1.0000
  N   N41       1.0  0.18997  0.58378  0.51651  1.0000
  C   C241      1.0  0.18074  0.55903  0.49897  1.0000
  C   C242      1.0  0.21987  0.60197  0.50774  1.0000
  B   B41       1.0  0.06107  0.48505  0.52770  1.0000
  O   O41       1.0  0.99486  0.05025  0.53824  1.0000
  C   C243      1.0  0.46408  0.72935  0.87385  1.0000
  H   H241      1.0  0.44231  0.73378  0.88904  1.0000
  H   H242      1.0  0.45899  0.70754  0.85855  1.0000
  H   H243      1.0  0.99694  0.77019  0.18648  1.0000
  H   H244      1.0  0.19454  0.54985  0.47753  1.0000
  N   N42       1.0  0.68996  0.08641  0.01358  1.0000
  C   C244      1.0  0.67946  0.06325  0.99467  1.0000
  C   C245      1.0  0.71993  0.10445  0.00499  1.0000
  B   B42       1.0  0.56008  0.98966  0.02484  1.0000
  O   O42       1.0  0.49028  0.55825  0.04478  1.0000
  C   C246      1.0  0.96240  0.22770  0.37474  1.0000
  H   H245      1.0  0.94117  0.23271  0.39053  1.0000
  H   H246      1.0  0.95636  0.20591  0.35971  1.0000
  H   H247      1.0  0.49183  0.27395  0.68588  1.0000
  H   H248      1.0  0.69218  0.05540  0.97205  1.0000
  N   N43       1.0  0.68943  0.91580  0.48479  1.0000
  C   C247      1.0  0.68221  0.94226  0.50058  1.0000
  C   C248      1.0  0.71928  0.89749  0.49309  1.0000
  B   B43       1.0  0.56193  0.01586  0.47489  1.0000
  O   O43       1.0  0.49174  0.44493  0.45505  1.0000
  C   C249      1.0  0.96340  0.77197  0.12629  1.0000
  H   H249      1.0  0.94162  0.76680  0.11116  1.0000
  H   H250      1.0  0.95772  0.79350  0.14174  1.0000
  H   H251      1.0  0.49655  0.73185  0.81431  1.0000
  C   C250      1.0  0.34655  0.53706  0.49087  1.0000
  C   C251      1.0  0.40432  0.50101  0.47780  1.0000
  C   C252      1.0  0.35359  0.50811  0.50842  1.0000
  C   C253      1.0  0.38214  0.49044  0.50210  1.0000
  C   C254      1.0  0.36873  0.54802  0.46677  1.0000
  C   C255      1.0  0.39701  0.53017  0.46037  1.0000
  H   H252      1.0  0.69775  0.95280  0.52021  1.0000
  H   H253      1.0  0.33648  0.49965  0.52712  1.0000
  H   H254      1.0  0.38745  0.46812  0.51589  1.0000
  H   H255      1.0  0.36294  0.57047  0.45343  1.0000
  H   H256      1.0  0.41395  0.53854  0.44150  1.0000
  N   N44       1.0  0.19289  0.41653  0.98270  1.0000
  C   C256      1.0  0.18291  0.43973  0.00173  1.0000
  C   C257      1.0  0.22206  0.39757  0.99213  1.0000
  B   B44       1.0  0.06487  0.51559  0.97351  1.0000
  O   O44       1.0  0.99036  0.94511  0.95651  1.0000
  C   C258      1.0  0.45979  0.27244  0.62515  1.0000
  H   H257      1.0  0.43843  0.26659  0.60966  1.0000
  H   H258      1.0  0.45363  0.29448  0.63967  1.0000
  H   H259      1.0  0.99359  0.22880  0.31430  1.0000
  C   C259      1.0  0.84999  0.04318  0.99509  1.0000
  C   C260      1.0  0.90703  0.00593  0.98186  1.0000
  C   C261      1.0  0.86051  0.01874  0.01718  1.0000
  C   C262      1.0  0.88853  0.00027  0.01054  1.0000
  C   C263      1.0  0.86850  0.04924  0.96652  1.0000
  C   C264      1.0  0.89650  0.03096  0.96018  1.0000
  H   H260      1.0  0.19560  0.44684  0.02472  1.0000
  H   H261      1.0  0.84645  0.01427  0.03949  1.0000
  H   H262      1.0  0.89627  0.98117  0.02761  1.0000
  H   H263      1.0  0.86015  0.06845  0.94988  1.0000
  H   H264      1.0  0.91068  0.03575  0.93804  1.0000
  N   N45       1.0  0.80913  0.08354  0.98172  1.0000
  C   C265      1.0  0.82009  0.06208  0.00210  1.0000
  C   C266      1.0  0.78010  0.10318  0.99022  1.0000
  B   B45       1.0  0.93754  0.98484  0.97352  1.0000
  O   O45       1.0  0.00958  0.55213  0.95838  1.0000
  C   C267      1.0  0.53492  0.22931  0.62744  1.0000
  H   H265      1.0  0.55658  0.23426  0.61227  1.0000
  H   H266      1.0  0.54088  0.20832  0.64337  1.0000
  H   H267      1.0  0.00312  0.27149  0.31420  1.0000
  C   C268      1.0  0.15314  0.45856  0.99434  1.0000
  C   C269      1.0  0.09595  0.49530  0.98133  1.0000
  C   C270      1.0  0.14335  0.48385  0.01593  1.0000
  C   C271      1.0  0.11517  0.50204  0.00942  1.0000
  C   C272      1.0  0.13404  0.45159  0.96619  1.0000
  C   C273      1.0  0.10587  0.46965  0.95998  1.0000
  H   H268      1.0  0.80823  0.05661  0.02583  1.0000
  H   H269      1.0  0.15808  0.48913  0.03777  1.0000
  H   H270      1.0  0.10772  0.52166  0.02613  1.0000
  H   H271      1.0  0.14200  0.43192  0.94981  1.0000
  H   H272      1.0  0.09102  0.46419  0.93829  1.0000
  N   N46       1.0  0.31001  0.58307  0.48463  1.0000
  C   C274      1.0  0.31612  0.55508  0.49787  1.0000
  C   C275      1.0  0.27996  0.60106  0.49261  1.0000
  B   B46       1.0  0.43560  0.48100  0.46980  1.0000
  O   O46       1.0  0.50508  0.05144  0.46160  1.0000
  C   C276      1.0  0.03835  0.72853  0.12477  1.0000
  H   H273      1.0  0.05952  0.73410  0.10912  1.0000
  H   H274      1.0  0.04474  0.70683  0.13953  1.0000
  H   H275      1.0  0.50630  0.77448  0.81545  1.0000
  C   C277      1.0  0.65190  0.96054  0.49381  1.0000
  C   C278      1.0  0.59364  0.99618  0.48191  1.0000
  C   C279      1.0  0.64340  0.98743  0.51400  1.0000
  C   C280      1.0  0.61458  0.00488  0.50822  1.0000
  C   C281      1.0  0.63112  0.95167  0.46745  1.0000
  C   C282      1.0  0.60258  0.96930  0.46165  1.0000
  H   H276      1.0  0.29945  0.54284  0.51524  1.0000
  H   H277      1.0  0.65952  0.99440  0.53433  1.0000
  H   H278      1.0  0.60810  0.02552  0.52410  1.0000
  H   H279      1.0  0.63811  0.93090  0.45198  1.0000
  H   H280      1.0  0.58664  0.96252  0.44115  1.0000
  N   N47       1.0  0.31164  0.41681  0.01575  1.0000
  C   C283      1.0  0.32189  0.43905  0.99589  1.0000
  C   C284      1.0  0.28215  0.39767  0.00750  1.0000
  B   B47       1.0  0.43718  0.51884  0.02711  1.0000
  O   O47       1.0  0.50806  0.94964  0.04334  1.0000
  C   C285      1.0  0.03671  0.27266  0.37385  1.0000
  H   H281      1.0  0.05872  0.26794  0.38871  1.0000
  H   H282      1.0  0.04182  0.29440  0.35864  1.0000
  H   H283      1.0  0.50173  0.23140  0.68694  1.0000
  H   H284      1.0  0.30956  0.44510  0.97248  1.0000
  N   N48       1.0  0.80846  0.91626  0.51843  1.0000
  C   C286      1.0  0.81953  0.93768  0.49809  1.0000
  C   C287      1.0  0.77927  0.89693  0.50911  1.0000
  B   B48       1.0  0.93731  0.01546  0.52533  1.0000
  O   O48       1.0  0.00501  0.44834  0.54177  1.0000
  C   C288      1.0  0.53818  0.77445  0.87594  1.0000
  H   H285      1.0  0.55967  0.76929  0.89142  1.0000
  H   H286      1.0  0.54391  0.79644  0.86133  1.0000
  H   H287      1.0  0.00664  0.72761  0.18473  1.0000
  H   H288      1.0  0.80777  0.94286  0.47417  1.0000
  C   C289      1.0  0.25071  0.66768  0.49929  1.0000
  C   C290      1.0  0.25131  0.33160  0.00216  1.0000
  C   C291      1.0  0.75138  0.16996  0.99711  1.0000
  C   C292      1.0  0.74878  0.83103  0.49964  1.0000
  C   C293      1.0  0.49688  0.25225  0.67045  1.0000
  C   C294      1.0  0.99881  0.25017  0.33022  1.0000
  C   C295      1.0  0.00160  0.74946  0.16965  1.0000
  C   C296      1.0  0.50153  0.75282  0.83085  1.0000
  C   C297      1.0  0.66873  0.49892  0.25012  1.0000
  C   C298      1.0  0.33166  0.00108  0.25005  1.0000
  C   C299      1.0  0.16614  0.99721  0.75102  1.0000
  C   C300      1.0  0.83180  0.50135  0.75139  1.0000
  C   C301      1.0  0.91918  0.50190  0.75057  1.0000
  C   C302      1.0  0.58145  0.50112  0.24989  1.0000
  C   C303      1.0  0.41903  0.00162  0.24985  1.0000
  C   C304      1.0  0.07889  0.99726  0.74860  1.0000
  C   C305      1.0  0.50060  0.75130  0.91882  1.0000
  C   C306      1.0  0.49791  0.24944  0.58249  1.0000
  C   C307      1.0  0.00069  0.24974  0.41822  1.0000
  C   C308      1.0  0.00030  0.75052  0.08169  1.0000
  C   C309      1.0  0.74935  0.91899  0.50177  1.0000
  C   C310      1.0  0.24972  0.57971  0.50069  1.0000
  C   C311      1.0  0.25235  0.41944  0.99897  1.0000
  C   C312      1.0  0.74956  0.08193  0.99769  1.0000
  C   C313      1.0  0.73841  0.38424  0.26936  1.0000
  C   C314      1.0  0.71366  0.39858  0.25041  1.0000
  C  Sn1       1.0  0.70272  0.38320  0.22152  1.0000
  C  Sn2       1.0  0.71687  0.35290  0.21147  1.0000
  C   C315      1.0  0.74160  0.33874  0.23061  1.0000
  C   C316      1.0  0.75237  0.35434  0.25947  1.0000
  H   H289      1.0  0.74673  0.39630  0.29171  1.0000
  O  Te1       1.0  0.67798  0.39787  0.20287  1.0000
  O  Te2       1.0  0.70640  0.33699  0.18270  1.0000
  H   H290      1.0  0.77152  0.34322  0.27415  1.0000
  Mg  Mg1       1.0  0.67200  0.36673  0.16559  1.0000
  C   C317      1.0  0.11295  0.26753  0.25688  1.0000
  C   C318      1.0  0.09830  0.24932  0.28201  1.0000
  C  Sn3       1.0  0.11350  0.22103  0.29415  1.0000
  C  Sn4       1.0  0.14393  0.21085  0.28083  1.0000
  C   C319      1.0  0.15839  0.22925  0.25570  1.0000
  C   C320      1.0  0.14296  0.25752  0.24373  1.0000
  H   H291      1.0  0.10102  0.28941  0.24763  1.0000
  O  Te3       1.0  0.09852  0.20311  0.31926  1.0000
  O  Te4       1.0  0.15966  0.18268  0.29251  1.0000
  H   H292      1.0  0.15432  0.27163  0.22429  1.0000
  Mg  Mg2       1.0  0.12952  0.16646  0.32698  1.0000
  C   C321      1.0  0.21363  0.13555  0.79570  1.0000
  C   C322      1.0  0.23925  0.14941  0.77766  1.0000
  C  Sn5       1.0  0.24694  0.13712  0.74642  1.0000
  C  Sn6       1.0  0.22859  0.11047  0.73305  1.0000
  C   C323      1.0  0.20299  0.09680  0.75128  1.0000
  C   C324      1.0  0.19551  0.10928  0.78252  1.0000
  H   H293      1.0  0.20783  0.14522  0.81986  1.0000
  O  Te5       1.0  0.27262  0.15125  0.72874  1.0000
  O  Te6       1.0  0.23575  0.09773  0.70188  1.0000
  H   H294      1.0  0.17566  0.09856  0.79647  1.0000
  Mg  Mg3       1.0  0.27302  0.12527  0.68730  1.0000
  C   C325      1.0  0.73008  0.76231  0.38205  1.0000
  C   C326      1.0  0.74891  0.78649  0.39786  1.0000
  C  Sn7       1.0  0.77897  0.79619  0.38469  1.0000
  C  Sn8       1.0  0.79032  0.78137  0.35514  1.0000
  C   C327      1.0  0.77128  0.75723  0.33949  1.0000
  C   C328      1.0  0.74125  0.74770  0.35289  1.0000
  H   H295      1.0  0.70683  0.75495  0.39240  1.0000
  O  Te7       1.0  0.79748  0.82037  0.40081  1.0000
  O  Te8       1.0  0.82026  0.79061  0.34143  1.0000
  H   H296      1.0  0.72666  0.72899  0.34063  1.0000
  Mg  Mg4       1.0  0.83666  0.82465  0.37251  1.0000
  C   C329      1.0  0.53671  0.87984  0.95135  1.0000
  C   C330      1.0  0.51506  0.85422  0.95876  1.0000
  C  Sn9       1.0  0.49387  0.85697  0.98557  1.0000
  C  Sn10      1.0  0.49077  0.88161  0.00529  1.0000
  C   C331      1.0  0.51614  0.91143  0.99767  1.0000
  C   C332      1.0  0.53725  0.90842  0.97078  1.0000
  H   H297      1.0  0.55303  0.87752  0.93054  1.0000
  O  Te9       1.0  0.47240  0.83113  0.99263  1.0000
  O  Te10      1.0  0.46984  0.88500  0.03223  1.0000
  H   H298      1.0  0.55400  0.92826  0.96504  1.0000
  Mg  Mg5       1.0  0.44500  0.84304  0.03193  1.0000
  C   C333      1.0  0.79640  0.62612  0.71253  1.0000
  C   C334      1.0  0.79679  0.60706  0.74113  1.0000
  C  Sn11      1.0  0.77453  0.61334  0.76644  1.0000
  C  Sn12      1.0  0.75148  0.63920  0.76298  1.0000
  C   C335      1.0  0.75127  0.65812  0.73426  1.0000
  C   C336      1.0  0.77366  0.65163  0.70909  1.0000
  H   H299      1.0  0.81371  0.62109  0.69305  1.0000
  O  Te11      1.0  0.77527  0.59406  0.79486  1.0000
  O  Te12      1.0  0.72895  0.64600  0.78789  1.0000
  H   H300      1.0  0.77334  0.66638  0.68694  1.0000
  Mg  Mg6       1.0  0.73962  0.61288  0.82196  1.0000
  C   C337      1.0  0.10867  0.53781  0.54299  1.0000
  C   C338      1.0  0.09356  0.51297  0.52440  1.0000
  C  Sn13      1.0  0.10859  0.50071  0.49602  1.0000
  C  Sn14      1.0  0.13932  0.51362  0.48612  1.0000
  C   C339      1.0  0.15424  0.53846  0.50490  1.0000
  C   C340      1.0  0.13898  0.55055  0.53325  1.0000
  H   H301      1.0  0.09687  0.54716  0.56493  1.0000
  O  Te13      1.0  0.09315  0.47589  0.47773  1.0000
  O  Te14      1.0  0.15489  0.50181  0.45787  1.0000
  H   H302      1.0  0.15070  0.56977  0.54765  1.0000
  Mg  Mg7       1.0  0.12409  0.46785  0.44110  1.0000
  C   C341      1.0  0.36583  0.49168  0.98045  1.0000
  C   C342      1.0  0.35419  0.46359  0.99645  1.0000
  C  Sn15      1.0  0.36536  0.44855  0.02558  1.0000
  C  Sn16      1.0  0.39231  0.46634  0.03888  1.0000
  C   C343      1.0  0.40377  0.49443  0.02270  1.0000
  C   C344      1.0  0.39241  0.50925  0.99356  1.0000
  H   H303      1.0  0.35422  0.49981  0.95792  1.0000
  O  Te15      1.0  0.35342  0.42043  0.04124  1.0000
  O  Te16      1.0  0.40756  0.45618  0.06796  1.0000
  H   H304      1.0  0.40142  0.53101  0.98119  1.0000
  Mg  Mg8       1.0  0.38240  0.41635  0.08026  1.0000
  C   C345      1.0  0.62270  0.05268  0.03513  1.0000
  C   C346      1.0  0.64564  0.04692  0.01031  1.0000
  C  Sn17      1.0  0.64360  0.02685  0.98654  1.0000
  C  Sn18      1.0  0.61437  0.00794  0.98769  1.0000
  C   C347      1.0  0.58791  0.00959  0.01261  1.0000
  C   C348      1.0  0.59386  0.03404  0.03628  1.0000
  H   H305      1.0  0.62729  0.07161  0.05343  1.0000
  O  Te17      1.0  0.66678  0.02141  0.96192  1.0000
  O  Te18      1.0  0.61055  0.98342  0.96423  1.0000
  H   H306      1.0  0.57608  0.03850  0.05548  1.0000
  Mg  Mg9       1.0  0.64960  0.98524  0.93551  1.0000
  C   C349      1.0  0.52005  0.62436  0.99829  1.0000
  C   C350      1.0  0.49130  0.60562  0.99853  1.0000
  C  Sn19      1.0  0.46656  0.61163  0.97548  1.0000
  C  Sn20      1.0  0.47075  0.63687  0.95176  1.0000
  C   C351      1.0  0.49961  0.65547  0.95171  1.0000
  C   C352      1.0  0.52421  0.64926  0.97490  1.0000
  H   H307      1.0  0.53545  0.61523  0.01622  1.0000
  O  Te19      1.0  0.43799  0.59268  0.97608  1.0000
  O  Te20      1.0  0.44642  0.64338  0.92843  1.0000
  H   H308      1.0  0.54647  0.66376  0.97469  1.0000
  Mg  Mg10      1.0  0.41187  0.61091  0.93922  1.0000
  C   C353      1.0  0.04375  0.60945  0.03782  1.0000
  C   C354      1.0  0.02514  0.59370  0.01341  1.0000
  C  Sn21      1.0  0.99597  0.60776  0.00225  1.0000
  C  Sn22      1.0  0.98530  0.63816  0.01582  1.0000
  C   C355      1.0  0.00410  0.65373  0.04022  1.0000
  C   C356      1.0  0.03324  0.63943  0.05121  1.0000
  H   H309      1.0  0.06630  0.59840  0.04631  1.0000
  O  Te21      1.0  0.98132  0.59602  0.97786  1.0000
  O  Te22      1.0  0.95625  0.65276  0.00511  1.0000
  H   H310      1.0  0.04765  0.65164  0.07009  1.0000
  Mg  Mg11      1.0  0.94345  0.62571  0.97137  1.0000
  C   C357      1.0  0.03274  0.95483  0.88819  1.0000
  C   C358      1.0  0.00950  0.97447  0.90401  1.0000
  C  Sn23      1.0  0.99703  0.00420  0.88997  1.0000
  C  Sn24      1.0  0.01063  0.01438  0.85952  1.0000
  C   C359      1.0  0.03635  0.99453  0.84388  1.0000
  C   C360      1.0  0.04616  0.96484  0.85816  1.0000
  H   H311      1.0  0.04032  0.93184  0.89923  1.0000
  O  Te23      1.0  0.97379  0.02353  0.90610  1.0000
  O  Te24      1.0  0.00110  0.04396  0.84493  1.0000
  H   H312      1.0  0.06414  0.94963  0.84589  1.0000
  Mg  Mg12      1.0  0.96865  0.06181  0.87641  1.0000
  C   C361      1.0  0.61190  0.23644  0.74231  1.0000
  C   C362      1.0  0.59698  0.25529  0.71776  1.0000
  C  Sn25      1.0  0.61297  0.28285  0.70494  1.0000
  C  Sn26      1.0  0.64448  0.29164  0.71696  1.0000
  C   C363      1.0  0.65921  0.27260  0.74151  1.0000
  C   C364      1.0  0.64298  0.24508  0.75417  1.0000
  H   H313      1.0  0.59936  0.21513  0.75210  1.0000
  O  Te25      1.0  0.59771  0.30142  0.68043  1.0000
  O  Te26      1.0  0.66101  0.31906  0.70457  1.0000
  H   H314      1.0  0.65455  0.23047  0.77316  1.0000
  Mg  Mg13      1.0  0.63009  0.33661  0.67135  1.0000
  C   C365      1.0  0.86664  0.23336  0.25181  1.0000
  C   C366      1.0  0.84451  0.25930  0.25553  1.0000
  C  Sn27      1.0  0.85053  0.28424  0.27863  1.0000
  C  Sn28      1.0  0.87927  0.28313  0.29834  1.0000
  C   C367      1.0  0.90127  0.25708  0.29442  1.0000
  C   C368      1.0  0.89500  0.23224  0.27123  1.0000
  H   H315      1.0  0.86180  0.21415  0.23387  1.0000
  O  Te27      1.0  0.82816  0.30998  0.28203  1.0000
  O  Te28      1.0  0.88590  0.30774  0.32160  1.0000
  H   H316      1.0  0.91215  0.21217  0.26835  1.0000
  Mg  Mg14      1.0  0.84799  0.33772  0.31711  1.0000
  C   C369      1.0  0.45889  0.37347  0.54407  1.0000
  C   C370      1.0  0.48441  0.35080  0.54102  1.0000
  C  Sn29      1.0  0.50907  0.35575  0.51778  1.0000
  C  Sn30      1.0  0.50811  0.38396  0.49725  1.0000
  C   C371      1.0  0.48250  0.40651  0.50052  1.0000
  C   C372      1.0  0.45794  0.40131  0.52385  1.0000
  H   H317      1.0  0.43990  0.36946  0.56213  1.0000
  O  Te29      1.0  0.53438  0.33285  0.51504  1.0000
  O  Te30      1.0  0.53245  0.38952  0.47383  1.0000
  H   H318      1.0  0.43820  0.41888  0.52622  1.0000
  Mg  Mg15      1.0  0.56188  0.35124  0.47943  1.0000
  C   C373      1.0  0.94940  0.46476  0.62264  1.0000
  C   C374      1.0  0.95522  0.48878  0.64676  1.0000
  C  Sn31      1.0  0.98038  0.51178  0.64272  1.0000
  C  Sn32      1.0  0.00003  0.51066  0.61397  1.0000
  C   C375      1.0  0.99399  0.48655  0.58997  1.0000
  C   C376      1.0  0.96876  0.46365  0.59427  1.0000
  H   H319      1.0  0.92986  0.44705  0.62595  1.0000
  O  Te31      1.0  0.98588  0.53560  0.66707  1.0000
  O  Te32      1.0  0.02533  0.53336  0.60930  1.0000
  H   H320      1.0  0.96424  0.44507  0.57558  1.0000
  Mg  Mg16      1.0  0.02327  0.56115  0.64947  1.0000
  C   C377      1.0  0.26817  0.74045  0.38625  1.0000
  C   C378      1.0  0.24974  0.71488  0.39988  1.0000
  C  Sn33      1.0  0.22228  0.70257  0.38324  1.0000
  C  Sn34      1.0  0.21318  0.71614  0.35238  1.0000
  C   C379      1.0  0.23179  0.74169  0.33893  1.0000
  C   C380      1.0  0.25921  0.75384  0.35580  1.0000
  H   H321      1.0  0.28939  0.74984  0.39929  1.0000
  O  Te33      1.0  0.20414  0.67703  0.39722  1.0000
  O  Te34      1.0  0.18586  0.70428  0.33521  1.0000
  H   H322      1.0  0.27349  0.77362  0.34523  1.0000
  Mg  Mg17      1.0  0.16892  0.66922  0.36439  1.0000
  C   C381      1.0  0.87842  0.70806  0.20609  1.0000
  C   C382      1.0  0.89842  0.73604  0.20729  1.0000
  C  Sn35      1.0  0.89295  0.76054  0.23093  1.0000
  C  Sn36      1.0  0.86697  0.75689  0.25375  1.0000
  C   C383      1.0  0.84712  0.72880  0.25235  1.0000
  C   C384      1.0  0.85280  0.70444  0.22860  1.0000
  H   H323      1.0  0.88283  0.68920  0.18772  1.0000
  O  Te35      1.0  0.91315  0.78834  0.23178  1.0000
  O  Te36      1.0  0.86097  0.78099  0.27763  1.0000
  H   H324      1.0  0.83733  0.68277  0.22769  1.0000
  Mg  Mg18      1.0  0.89519  0.81443  0.26888  1.0000
  C   C385      1.0  0.88954  0.96428  0.54309  1.0000
  C   C386      1.0  0.90516  0.98721  0.52288  1.0000
  C  Sn37      1.0  0.89107  0.99634  0.49286  1.0000
  C  Sn38      1.0  0.86077  0.98221  0.48295  1.0000
  C   C387      1.0  0.84533  0.95930  0.50335  1.0000
  C   C388      1.0  0.85965  0.95034  0.53334  1.0000
  H   H325      1.0  0.90061  0.95735  0.56630  1.0000
  O  Te37      1.0  0.90452  0.01928  0.47296  1.0000
  O  Te38      1.0  0.84614  0.99090  0.45307  1.0000
  H   H326      1.0  0.84753  0.93259  0.54899  1.0000
  Mg  Mg19      1.0  0.87484  0.02322  0.43447  1.0000
  C   C389      1.0  0.36401  0.73289  0.75733  1.0000
  C   C390      1.0  0.34567  0.76189  0.75620  1.0000
  C  Sn39      1.0  0.35527  0.78938  0.77474  1.0000
  C  Sn40      1.0  0.38378  0.78773  0.79474  1.0000
  C   C391      1.0  0.40197  0.75861  0.79569  1.0000
  C   C392      1.0  0.39214  0.73125  0.77705  1.0000
  H   H327      1.0  0.35641  0.71172  0.74290  1.0000
  O  Te39      1.0  0.33666  0.81816  0.77333  1.0000
  O  Te40      1.0  0.39394  0.81485  0.81351  1.0000
  H   H328      1.0  0.40635  0.70880  0.77791  1.0000
  Mg  Mg20      1.0  0.36045  0.84855  0.80338  1.0000
  C   C393      1.0  0.76738  0.24338  0.88374  1.0000
  C   C394      1.0  0.74994  0.21706  0.89726  1.0000
  C  Sn41      1.0  0.72300  0.20374  0.88054  1.0000
  C  Sn42      1.0  0.71342  0.21704  0.84970  1.0000
  C   C395      1.0  0.73105  0.24335  0.83637  1.0000
  C   C396      1.0  0.75795  0.25651  0.85332  1.0000
  H   H329      1.0  0.78821  0.25355  0.89685  1.0000
  O  Te41      1.0  0.70584  0.17746  0.89441  1.0000
  O  Te42      1.0  0.68660  0.20419  0.83246  1.0000
  H   H330      1.0  0.77147  0.27687  0.84284  1.0000
  Mg  Mg21      1.0  0.67099  0.16839  0.86149  1.0000
  C   C397      1.0  0.96119  0.87650  0.04854  1.0000
  C   C398      1.0  0.98540  0.85277  0.04341  1.0000
  C  Sn43      1.0  0.00850  0.85692  0.01845  1.0000
  C  Sn44      1.0  0.01091  0.88969  0.99828  1.0000
  C   C399      1.0  0.98296  0.90897  0.00362  1.0000
  C   C400      1.0  0.95997  0.90457  0.02867  1.0000
  H   H331      1.0  0.94341  0.87310  0.06793  1.0000
  O  Te43      1.0  0.03252  0.83297  0.01365  1.0000
  O  Te44      1.0  0.03370  0.89446  0.97316  1.0000
  H   H332      1.0  0.94124  0.92296  0.03264  1.0000
  Mg  Mg22      1.0  0.06176  0.85487  0.97625  1.0000
  C   C401      1.0  0.01673  0.13561  0.49080  1.0000
  C   C402      1.0  0.00115  0.14764  0.46260  1.0000
  C  Sn45      1.0  0.97399  0.13118  0.44942  1.0000
  C  Sn46      1.0  0.96225  0.10215  0.46482  1.0000
  C   C403      1.0  0.97799  0.09033  0.49304  1.0000
  C   C404      1.0  0.00516  0.10699  0.50601  1.0000
  H   H333      1.0  0.03774  0.14851  0.50085  1.0000
  O  Te45      1.0  0.95873  0.14352  0.42123  1.0000
  O  Te46      1.0  0.93515  0.08522  0.45218  1.0000
  H   H334      1.0  0.01720  0.09769  0.52786  1.0000
  Mg  Mg23      1.0  0.92264  0.11173  0.41328  1.0000
  C   C405      1.0  0.75155  0.37070  0.73281  1.0000
  C   C406      1.0  0.75463  0.34791  0.75835  1.0000
  C  Sn47      1.0  0.77788  0.35280  0.78325  1.0000
  C  Sn48      1.0  0.79839  0.38106  0.78249  1.0000
  C   C407      1.0  0.79510  0.40372  0.75684  1.0000
  C   C408      1.0  0.77176  0.39858  0.73205  1.0000
  H   H335      1.0  0.73347  0.36673  0.71363  1.0000
  O  Te47      1.0  0.78064  0.32979  0.80858  1.0000
  O  Te48      1.0  0.82183  0.38656  0.80706  1.0000
  H   H336      1.0  0.76936  0.41624  0.71228  1.0000
  Mg  Mg24      1.0  0.81626  0.34812  0.83644  1.0000
