data_image0
_chemical_formula_structural       NC2BOCH4NC2BOCH4NC2BOCH4NC2BOCH4NC2BOCH4NC2BOCH4NC2BOCH4NC2BOCH4NC2BOCH4NC2BOCH4NC2BOCH4NC2BOCH4NC2BOCH4NC2BOCH4NC2BOCH4NC2BOCH4NC2BOCH4NC2BOCH4NC2BOCH4NC2BOCH4NC2BOCH4NC2BOCH4NC2BOCH4NC2BOCH4NC2BOCH4NC2BOCH4NC2BOCH4NC2BOCH4NC2BOCH4NC2BOCH4NC2BOCH4NC2BOCH4NC2BOCH4NC2BOCH4NC2BOCH4NC2BOCH4NC2BOCH4NC2BOCH4NC2BOCH4NC2BOCH4NC2BOCH4NC2BOCH4NC2BOCH4NC2BOCH4NC2BOCH4NC2BOCH4NC2BOCH4NC2BOCH4C26Sn2C2HTe2HMgC2Sn2C2HTe2HMgC2Sn2C2HTe2HMgC2Sn2C2HTe2HMgC2Sn2C2HTe2HMgC2Sn2C2HTe2HMgC2Sn2C2HTe2HMgC2Sn2C2HTe2HMgC2Sn2C2HTe2HMgC2Sn2C2HTe2HMgC2Sn2C2HTe2HMgC2Sn2C2HTe2HMgC2Sn2C2HTe2HMgC2Sn2C2HTe2HMgC2Sn2C2HTe2HMgC2Sn2C2HTe2HMgC2Sn2C2HTe2HMgC2Sn2C2HTe2HMgC2Sn2C2HTe2HMgC2Sn2C2HTe2HMgC2Sn2C2HTe2HMgC2Sn2C2HTe2HMgC2Sn2C2HTe2HMgC2Sn2C2HTe2HMgC2Sn2C2HTe2HMgC2Sn2C2HTe2HMgC2Sn2C2HTe2HMgC2Sn2C2HTe2HMgC2Sn2C2HTe2HMgC2Sn2C2HTe2HMgC2Sn2C2HTe2HMgC2Sn2C2HTe2HMgC2Sn2C2HTe2HMgC2Sn2C2HTe2HMgC2Sn2C2HTe2HMgC2Sn2C2HTe2HMgC2Sn2C2HTe2HMgC2Sn2C2HTe2HMgC2Sn2C2HTe2HMgC2Sn2C2HTe2HMgC2Sn2C2HTe2HMgC2Sn2C2HTe2HMgC2Sn2C2HTe2HMgC2Sn2C2HTe2HMgC2Sn2C2HTe2HMgC2Sn2C2HTe2HMgC2Sn2C2HTe2HMgC2Sn2C2HTe2HMg
_chemical_formula_sum              "N48 C360 B48 O48 H288 Sn96 Te96 Mg48"
_cell_length_a       40.8487
_cell_length_b       40.5784
_cell_length_c       40.5707
_cell_angle_alpha    90.247
_cell_angle_beta     90.2094
_cell_angle_gamma    90.1439

_symmetry_space_group_name_H-M    'P1'
_space_group_IT_number       1

loop_
  _space_group_symop_operation_xyz
  'x, y, z'

loop_
  _atom_site_type_symbol
  _atom_site_label
  _atom_site_symmetry_multiplicity
  _atom_site_fract_x
  _atom_site_fract_y
  _atom_site_fract_z
  _atom_site_occupancy
  N   N1        1.0  0.26724  0.33270  0.94162  1.0000
  C   C1        1.0  0.25200  0.30574  0.93518  1.0000
  C   C2        1.0  0.25917  0.35202  0.97115  1.0000
  B   B1        1.0  0.27839  0.22874  0.81601  1.0000
  O   O1        1.0  0.29409  0.80641  0.74170  1.0000
  C   C3        1.0  0.62448  0.47776  0.21233  1.0000
  H   H1        1.0  0.63984  0.48239  0.19066  1.0000
  H   H2        1.0  0.60909  0.45622  0.20665  1.0000
  H   H3        1.0  0.93484  0.52338  0.74575  1.0000
  H   H4        1.0  0.23275  0.29545  0.95110  1.0000
  N   N2        1.0  0.76607  0.83461  0.44036  1.0000
  C   C4        1.0  0.74637  0.81272  0.42881  1.0000
  C   C5        1.0  0.75690  0.85337  0.47001  1.0000
  B   B2        1.0  0.77899  0.73316  0.31316  1.0000
  O   O2        1.0  0.79175  0.30344  0.24324  1.0000
  C   C6        1.0  0.12345  0.97516  0.71214  1.0000
  H   H5        1.0  0.13925  0.98028  0.69091  1.0000
  H   H6        1.0  0.10845  0.95354  0.70573  1.0000
  H   H7        1.0  0.43500  0.02284  0.24486  1.0000
  H   H8        1.0  0.72266  0.80679  0.44025  1.0000
  N   N3        1.0  0.23449  0.66351  0.43907  1.0000
  C   C7        1.0  0.25188  0.68845  0.43060  1.0000
  C   C8        1.0  0.24278  0.64539  0.46929  1.0000
  B   B3        1.0  0.22530  0.76490  0.31146  1.0000
  O   O3        1.0  0.20471  0.19492  0.24029  1.0000
  C   C9        1.0  0.87474  0.52375  0.71361  1.0000
  H   H9        1.0  0.85903  0.51850  0.69217  1.0000
  H   H10       1.0  0.88954  0.54553  0.70755  1.0000
  H   H11       1.0  0.56487  0.48042  0.24445  1.0000
  H   H12       1.0  0.27287  0.69747  0.44520  1.0000
  N   N4        1.0  0.73543  0.16591  0.93666  1.0000
  C   C10       1.0  0.75242  0.19113  0.92829  1.0000
  C   C11       1.0  0.74344  0.14789  0.96695  1.0000
  B   B4        1.0  0.72335  0.26690  0.80956  1.0000
  O   O4        1.0  0.70877  0.69849  0.74501  1.0000
  C   C12       1.0  0.37491  0.02368  0.21250  1.0000
  H   H13       1.0  0.35955  0.01849  0.19079  1.0000
  H   H14       1.0  0.38954  0.04567  0.20685  1.0000
  H   H15       1.0  0.06323  0.97576  0.74362  1.0000
  H   H16       1.0  0.77300  0.20084  0.94307  1.0000
  N   N5        1.0  0.73193  0.83268  0.55912  1.0000
  C   C13       1.0  0.75167  0.81064  0.56993  1.0000
  C   C14       1.0  0.74115  0.85239  0.53027  1.0000
  B   B5        1.0  0.72306  0.73424  0.68839  1.0000
  O   O5        1.0  0.70762  0.30503  0.75492  1.0000
  C   C15       1.0  0.37557  0.97921  0.28724  1.0000
  H   H17       1.0  0.36035  0.98414  0.30897  1.0000
  H   H18       1.0  0.39083  0.95773  0.29302  1.0000
  H   H19       1.0  0.06285  0.01849  0.75318  1.0000
  H   H20       1.0  0.77537  0.80510  0.55826  1.0000
  N   N6        1.0  0.23500  0.33659  0.06156  1.0000
  C   C16       1.0  0.25451  0.31452  0.07270  1.0000
  C   C17       1.0  0.24409  0.35472  0.03163  1.0000
  B   B6        1.0  0.22282  0.23551  0.18840  1.0000
  O   O6        1.0  0.21122  0.80165  0.25525  1.0000
  C   C18       1.0  0.87581  0.47938  0.78842  1.0000
  H   H21       1.0  0.86069  0.48451  0.81017  1.0000
  H   H22       1.0  0.89084  0.45773  0.79418  1.0000
  H   H23       1.0  0.56630  0.52290  0.25482  1.0000
  H   H24       1.0  0.27792  0.30827  0.06080  1.0000
  N   N7        1.0  0.76670  0.16644  0.05796  1.0000
  C   C19       1.0  0.75176  0.19327  0.06521  1.0000
  C   C20       1.0  0.75836  0.14837  0.02762  1.0000
  B   B7        1.0  0.77608  0.26551  0.18798  1.0000
  O   O7        1.0  0.79671  0.69315  0.26018  1.0000
  C   C21       1.0  0.12185  0.01954  0.78735  1.0000
  H   H25       1.0  0.13664  0.01457  0.80944  1.0000
  H   H26       1.0  0.10675  0.04126  0.79276  1.0000
  H   H27       1.0  0.43480  0.98019  0.25424  1.0000
  H   H28       1.0  0.73307  0.20450  0.04921  1.0000
  N   N8        1.0  0.26712  0.66543  0.55943  1.0000
  C   C22       1.0  0.24865  0.68897  0.56932  1.0000
  C   C23       1.0  0.25808  0.64633  0.52985  1.0000
  B   B8        1.0  0.27714  0.76592  0.68850  1.0000
  O   O8        1.0  0.29052  0.19332  0.75832  1.0000
  C   C24       1.0  0.62571  0.52198  0.28771  1.0000
  H   H29       1.0  0.64075  0.51654  0.30951  1.0000
  H   H30       1.0  0.61122  0.54402  0.29350  1.0000
  H   H31       1.0  0.93526  0.48072  0.75514  1.0000
  H   H32       1.0  0.22622  0.69654  0.55623  1.0000
  N   N9        1.0  0.93962  0.26664  0.33388  1.0000
  C   C25       1.0  0.92825  0.24657  0.31214  1.0000
  C   C26       1.0  0.96916  0.25767  0.35262  1.0000
  B   B9        1.0  0.81056  0.27593  0.23549  1.0000
  O   O9        1.0  0.74194  0.29459  0.80185  1.0000
  C   C27       1.0  0.21289  0.62372  0.47747  1.0000
  H   H33       1.0  0.19145  0.63929  0.48222  1.0000
  H   H34       1.0  0.20703  0.60825  0.45594  1.0000
  H   H35       1.0  0.74477  0.93434  0.52363  1.0000
  H   H36       1.0  0.93987  0.22281  0.30613  1.0000
  N   N10       1.0  0.44319  0.76963  0.83183  1.0000
  C   C28       1.0  0.42746  0.74762  0.81532  1.0000
  C   C29       1.0  0.47117  0.75975  0.85247  1.0000
  B   B10       1.0  0.31267  0.77852  0.73477  1.0000
  O   O10       1.0  0.24485  0.79178  0.30311  1.0000
  C   C30       1.0  0.71332  0.12649  0.97491  1.0000
  H   H37       1.0  0.69204  0.14228  0.97973  1.0000
  H   H38       1.0  0.70738  0.11133  0.95320  1.0000
  H   H39       1.0  0.24785  0.43639  0.01965  1.0000
  H   H40       1.0  0.43414  0.72133  0.81526  1.0000
  N   N11       1.0  0.43697  0.23495  0.66602  1.0000
  C   C31       1.0  0.42871  0.25092  0.69205  1.0000
  C   C32       1.0  0.46716  0.24339  0.64839  1.0000
  B   B11       1.0  0.31030  0.22015  0.76658  1.0000
  O   O11       1.0  0.24197  0.20843  0.19668  1.0000
  C   C33       1.0  0.71167  0.87461  0.52233  1.0000
  H   H41       1.0  0.69017  0.85930  0.51653  1.0000
  H   H42       1.0  0.70561  0.88936  0.54424  1.0000
  H   H43       1.0  0.24481  0.56311  0.47977  1.0000
  H   H44       1.0  0.44356  0.27095  0.70285  1.0000
  N   N12       1.0  0.94212  0.73260  0.16715  1.0000
  C   C34       1.0  0.93294  0.75069  0.19141  1.0000
  C   C35       1.0  0.97122  0.74193  0.14804  1.0000
  B   B12       1.0  0.81582  0.72047  0.26827  1.0000
  O   O12       1.0  0.74184  0.70693  0.69679  1.0000
  C   C36       1.0  0.21472  0.37667  0.02282  1.0000
  H   H45       1.0  0.19299  0.36128  0.01831  1.0000
  H   H46       1.0  0.20922  0.39264  0.04402  1.0000
  H   H47       1.0  0.74452  0.06592  0.97634  1.0000
  H   H48       1.0  0.94610  0.77313  0.19930  1.0000
  N   N13       1.0  0.56132  0.73680  0.83479  1.0000
  C   C37       1.0  0.57053  0.75488  0.81067  1.0000
  C   C38       1.0  0.53136  0.74488  0.85295  1.0000
  B   B13       1.0  0.68894  0.72491  0.73603  1.0000
  O   O13       1.0  0.75988  0.70601  0.30464  1.0000
  C   C39       1.0  0.28907  0.37419  0.97842  1.0000
  H   H49       1.0  0.31054  0.35893  0.98405  1.0000
  H   H50       1.0  0.29478  0.38833  0.95613  1.0000
  H   H51       1.0  0.75398  0.06600  0.01908  1.0000
  H   H52       1.0  0.55667  0.77643  0.80196  1.0000
  N   N14       1.0  0.05872  0.23422  0.33265  1.0000
  C   C40       1.0  0.06759  0.25207  0.30822  1.0000
  C   C41       1.0  0.02930  0.24269  0.35156  1.0000
  B   B14       1.0  0.18581  0.22242  0.23281  1.0000
  O   O14       1.0  0.25976  0.20097  0.80828  1.0000
  C   C42       1.0  0.78660  0.87505  0.47897  1.0000
  H   H53       1.0  0.80787  0.85937  0.48421  1.0000
  H   H54       1.0  0.79286  0.89022  0.45753  1.0000
  H   H55       1.0  0.25412  0.56442  0.52254  1.0000
  H   H56       1.0  0.05392  0.27389  0.29982  1.0000
  N   N15       1.0  0.06158  0.76623  0.16535  1.0000
  C   C43       1.0  0.06944  0.75038  0.19150  1.0000
  C   C44       1.0  0.03118  0.75802  0.14766  1.0000
  B   B15       1.0  0.19093  0.77547  0.26399  1.0000
  O   O15       1.0  0.25796  0.79304  0.69659  1.0000
  C   C45       1.0  0.78757  0.12565  0.02004  1.0000
  H   H57       1.0  0.80950  0.14049  0.01501  1.0000
  H   H58       1.0  0.79279  0.11080  0.04201  1.0000
  H   H59       1.0  0.25732  0.43441  0.97705  1.0000
  H   H60       1.0  0.05385  0.73115  0.20240  1.0000
  N   N16       1.0  0.55671  0.26940  0.66699  1.0000
  C   C46       1.0  0.56544  0.25290  0.69243  1.0000
  C   C47       1.0  0.52701  0.25982  0.64875  1.0000
  B   B16       1.0  0.68777  0.27841  0.76339  1.0000
  O   O16       1.0  0.75687  0.29251  0.19646  1.0000
  C   C48       1.0  0.28745  0.62389  0.52217  1.0000
  H   H61       1.0  0.30917  0.63896  0.51693  1.0000
  H   H62       1.0  0.29309  0.60905  0.54404  1.0000
  H   H63       1.0  0.75451  0.93557  0.48107  1.0000
  H   H64       1.0  0.55110  0.23216  0.70229  1.0000
  N   N17       1.0  0.33495  0.94125  0.26638  1.0000
  C   C49       1.0  0.31240  0.93043  0.24705  1.0000
  C   C50       1.0  0.35358  0.97098  0.25743  1.0000
  B   B17       1.0  0.23754  0.81063  0.27536  1.0000
  O   O17       1.0  0.80691  0.74024  0.29489  1.0000
  C   C51       1.0  0.47587  0.21301  0.62729  1.0000
  H   H65       1.0  0.48113  0.19192  0.64335  1.0000
  H   H66       1.0  0.45445  0.20637  0.61221  1.0000
  H   H67       1.0  0.52152  0.74622  0.93512  1.0000
  H   H68       1.0  0.30552  0.94269  0.22385  1.0000
  N   N18       1.0  0.83439  0.44189  0.76759  1.0000
  C   C52       1.0  0.81351  0.43044  0.74675  1.0000
  C   C53       1.0  0.85367  0.47121  0.75871  1.0000
  B   B18       1.0  0.73443  0.31363  0.77442  1.0000
  O   O18       1.0  0.30346  0.23832  0.79492  1.0000
  C   C54       1.0  0.97908  0.71244  0.12540  1.0000
  H   H69       1.0  0.98440  0.69061  0.14039  1.0000
  H   H70       1.0  0.95731  0.70670  0.11042  1.0000
  H   H71       1.0  0.02246  0.24502  0.43345  1.0000
  H   H72       1.0  0.80887  0.44181  0.72256  1.0000
  N   N19       1.0  0.66459  0.43930  0.23324  1.0000
  C   C55       1.0  0.68745  0.42924  0.25247  1.0000
  C   C56       1.0  0.64628  0.46921  0.24215  1.0000
  B   B19       1.0  0.76485  0.31178  0.22383  1.0000
  O   O19       1.0  0.19499  0.24267  0.20679  1.0000
  C   C57       1.0  0.52338  0.71461  0.87426  1.0000
  H   H73       1.0  0.51854  0.69315  0.85836  1.0000
  H   H74       1.0  0.54497  0.70876  0.88932  1.0000
  H   H75       1.0  0.47708  0.24367  0.56624  1.0000
  H   H76       1.0  0.69446  0.44217  0.27539  1.0000
  N   N20       1.0  0.16377  0.93781  0.73389  1.0000
  C   C58       1.0  0.18588  0.92770  0.75394  1.0000
  C   C59       1.0  0.14455  0.96708  0.74251  1.0000
  B   B20       1.0  0.26633  0.81334  0.72304  1.0000
  O   O20       1.0  0.69664  0.74316  0.70814  1.0000
  C   C60       1.0  0.02184  0.21273  0.37350  1.0000
  H   H77       1.0  0.01681  0.19099  0.35805  1.0000
  H   H78       1.0  0.04362  0.20715  0.38840  1.0000
  H   H79       1.0  0.97900  0.74554  0.06579  1.0000
  H   H80       1.0  0.19156  0.94008  0.77751  1.0000
  N   N21       1.0  0.83372  0.56081  0.73493  1.0000
  C   C61       1.0  0.81330  0.57271  0.75577  1.0000
  C   C62       1.0  0.85329  0.53175  0.74373  1.0000
  B   B21       1.0  0.73479  0.68896  0.72510  1.0000
  O   O21       1.0  0.30383  0.75820  0.70844  1.0000
  C   C63       1.0  0.97740  0.28738  0.37486  1.0000
  H   H81       1.0  0.98202  0.30921  0.35962  1.0000
  H   H82       1.0  0.95599  0.29286  0.39022  1.0000
  H   H83       1.0  0.02126  0.75570  0.06562  1.0000
  H   H84       1.0  0.80904  0.56192  0.78029  1.0000
  N   N22       1.0  0.33453  0.06128  0.23380  1.0000
  C   C64       1.0  0.31013  0.07016  0.25155  1.0000
  C   C65       1.0  0.35313  0.03152  0.24240  1.0000
  B   B22       1.0  0.23290  0.18782  0.22244  1.0000
  O   O22       1.0  0.80205  0.25659  0.20835  1.0000
  C   C66       1.0  0.47874  0.78925  0.87529  1.0000
  H   H85       1.0  0.48366  0.81122  0.86038  1.0000
  H   H86       1.0  0.45715  0.79464  0.89045  1.0000
  H   H87       1.0  0.51925  0.25415  0.56678  1.0000
  H   H88       1.0  0.30168  0.05625  0.27320  1.0000
  N   N23       1.0  0.16417  0.05629  0.76803  1.0000
  C   C67       1.0  0.18475  0.06829  0.74747  1.0000
  C   C68       1.0  0.14444  0.02749  0.75817  1.0000
  B   B23       1.0  0.26547  0.18336  0.77931  1.0000
  O   O23       1.0  0.69652  0.25854  0.78991  1.0000
  C   C69       1.0  0.02249  0.78803  0.12617  1.0000
  H   H89       1.0  0.01724  0.80948  0.14189  1.0000
  H   H90       1.0  0.04383  0.79437  0.11106  1.0000
  H   H91       1.0  0.98009  0.25448  0.43492  1.0000
  H   H92       1.0  0.18858  0.05790  0.72264  1.0000
  N   N24       1.0  0.66671  0.55924  0.26676  1.0000
  C   C70       1.0  0.69266  0.56653  0.25061  1.0000
  C   C71       1.0  0.64788  0.52959  0.25803  1.0000
  B   B24       1.0  0.76905  0.68545  0.27867  1.0000
  O   O24       1.0  0.19840  0.75684  0.29175  1.0000
  C   C72       1.0  0.51879  0.28879  0.62580  1.0000
  H   H93       1.0  0.51313  0.31084  0.64050  1.0000
  H   H94       1.0  0.54054  0.29452  0.61103  1.0000
  H   H95       1.0  0.47908  0.75540  0.93445  1.0000
  H   H96       1.0  0.70237  0.55118  0.23046  1.0000
  N   N25       1.0  0.58349  0.51846  0.19119  1.0000
  C   C73       1.0  0.56437  0.49745  0.17728  1.0000
  C   C74       1.0  0.60333  0.50826  0.21971  1.0000
  B   B25       1.0  0.48303  0.53032  0.06323  1.0000
  O   O25       1.0  0.05666  0.54286  0.99277  1.0000
  C   C75       1.0  0.72746  0.87594  0.46284  1.0000
  H   H97       1.0  0.73292  0.89166  0.44157  1.0000
  H   H98       1.0  0.70575  0.86118  0.45643  1.0000
  H   H99       1.0  0.77299  0.18542  0.99247  1.0000
  H   H100      1.0  0.56177  0.47177  0.18569  1.0000
  N   N26       1.0  0.08425  0.01303  0.68815  1.0000
  C   C76       1.0  0.05675  0.99927  0.68127  1.0000
  C   C77       1.0  0.10120  0.00500  0.71898  1.0000
  B   B26       1.0  0.98489  0.02545  0.55962  1.0000
  O   O26       1.0  0.55329  0.04247  0.49481  1.0000
  C   C78       1.0  0.22965  0.37424  0.96312  1.0000
  H   H101      1.0  0.23468  0.38867  0.94086  1.0000
  H   H102      1.0  0.20796  0.35898  0.95798  1.0000
  H   H103      1.0  0.27212  0.68334  0.49443  1.0000
  H   H104      1.0  0.04432  0.98195  0.69788  1.0000
  N   N27       1.0  0.91535  0.48539  0.69056  1.0000
  C   C79       1.0  0.93864  0.50418  0.68075  1.0000
  C   C80       1.0  0.89712  0.49405  0.72052  1.0000
  B   B27       1.0  0.01387  0.47481  0.56196  1.0000
  O   O27       1.0  0.44284  0.45223  0.48688  1.0000
  C   C81       1.0  0.77270  0.12499  0.96013  1.0000
  H   H105      1.0  0.76747  0.10941  0.93853  1.0000
  H   H106      1.0  0.79453  0.13973  0.95437  1.0000
  H   H107      1.0  0.72744  0.81539  0.49415  1.0000
  H   H108      1.0  0.94634  0.52663  0.69408  1.0000
  N   N28       1.0  0.41677  0.98521  0.19039  1.0000
  C   C82       1.0  0.43690  0.00642  0.17862  1.0000
  C   C83       1.0  0.39719  0.99399  0.21953  1.0000
  B   B28       1.0  0.51504  0.97804  0.06142  1.0000
  O   O28       1.0  0.94637  0.95835  0.99338  1.0000
  C   C84       1.0  0.27214  0.62261  0.46236  1.0000
  H   H109      1.0  0.26669  0.60690  0.44089  1.0000
  H   H110      1.0  0.29389  0.63733  0.45634  1.0000
  H   H111      1.0  0.22982  0.31575  0.99813  1.0000
  H   H112      1.0  0.44069  0.03108  0.18951  1.0000
  N   N29       1.0  0.08031  0.98079  0.80829  1.0000
  C   C85       1.0  0.05778  0.00034  0.81826  1.0000
  C   C86       1.0  0.09989  0.98966  0.77935  1.0000
  B   B29       1.0  0.98225  0.97196  0.93682  1.0000
  O   O29       1.0  0.55216  0.96169  0.00649  1.0000
  C   C87       1.0  0.22806  0.62456  0.53726  1.0000
  H   H113      1.0  0.23281  0.60962  0.55927  1.0000
  H   H114      1.0  0.20666  0.64002  0.54260  1.0000
  H   H115      1.0  0.27221  0.31555  0.00775  1.0000
  H   H116      1.0  0.05160  0.02362  0.80581  1.0000
  N   N30       1.0  0.58407  0.48408  0.30968  1.0000
  C   C88       1.0  0.56052  0.50270  0.31912  1.0000
  C   C89       1.0  0.60288  0.49260  0.28011  1.0000
  B   B30       1.0  0.48372  0.47260  0.43644  1.0000
  O   O30       1.0  0.05219  0.45825  0.50809  1.0000
  C   C90       1.0  0.72819  0.12669  0.03472  1.0000
  H   H117      1.0  0.73274  0.11152  0.05660  1.0000
  H   H118      1.0  0.70695  0.14233  0.04019  1.0000
  H   H119      1.0  0.76966  0.81471  0.50445  1.0000
  H   H120      1.0  0.55299  0.52509  0.30585  1.0000
  N   N31       1.0  0.41526  0.01732  0.31074  1.0000
  C   C91       1.0  0.44204  0.00242  0.31785  1.0000
  C   C92       1.0  0.39756  0.00926  0.28017  1.0000
  B   B31       1.0  0.51421  0.02568  0.44075  1.0000
  O   O31       1.0  0.94652  0.04149  0.50509  1.0000
  C   C93       1.0  0.27401  0.37696  0.03813  1.0000
  H   H121      1.0  0.26917  0.39333  0.05918  1.0000
  H   H122      1.0  0.29550  0.36207  0.04459  1.0000
  H   H123      1.0  0.22974  0.68397  0.50381  1.0000
  H   H124      1.0  0.45358  0.98423  0.30140  1.0000
  N   N32       1.0  0.91727  0.51807  0.81050  1.0000
  C   C94       1.0  0.93954  0.49817  0.82050  1.0000
  C   C95       1.0  0.89785  0.50934  0.78109  1.0000
  B   B32       1.0  0.01776  0.52526  0.93867  1.0000
  O   O32       1.0  0.44498  0.54646  0.00845  1.0000
  C   C96       1.0  0.77097  0.87440  0.53839  1.0000
  H   H125      1.0  0.76582  0.88942  0.56035  1.0000
  H   H126      1.0  0.79242  0.85915  0.54409  1.0000
  H   H127      1.0  0.73048  0.18641  0.00139  1.0000
  H   H128      1.0  0.94546  0.47499  0.80761  1.0000
  N   N33       1.0  0.51495  0.19018  0.58686  1.0000
  C   C97       1.0  0.49522  0.17865  0.56494  1.0000
  C   C98       1.0  0.50566  0.22005  0.60524  1.0000
  B   B33       1.0  0.52502  0.06044  0.48808  1.0000
  O   O33       1.0  0.54071  0.99838  0.05171  1.0000
  C   C99       1.0  0.87555  0.46405  0.72872  1.0000
  H   H129      1.0  0.89113  0.44262  0.73383  1.0000
  H   H130      1.0  0.86064  0.45792  0.70696  1.0000
  H   H131      1.0  0.18139  0.99228  0.77280  1.0000
  H   H132      1.0  0.47167  0.19034  0.55875  1.0000
  N   N34       1.0  0.01752  0.69094  0.08365  1.0000
  C   C100      1.0  0.99793  0.67987  0.06142  1.0000
  C   C101      1.0  0.00848  0.72021  0.10305  1.0000
  B   B34       1.0  0.02904  0.56143  0.98507  1.0000
  O   O34       1.0  0.04179  0.49323  0.55477  1.0000
  C   C102      1.0  0.37550  0.96394  0.22738  1.0000
  H   H133      1.0  0.39101  0.94241  0.23223  1.0000
  H   H134      1.0  0.36038  0.95804  0.20567  1.0000
  H   H135      1.0  0.68459  0.49359  0.27136  1.0000
  H   H136      1.0  0.97442  0.69168  0.05528  1.0000
  N   N35       1.0  0.48439  0.69190  0.91514  1.0000
  C   C103      1.0  0.50425  0.68084  0.93700  1.0000
  C   C104      1.0  0.49348  0.72134  0.89623  1.0000
  B   B35       1.0  0.47185  0.56596  0.01694  1.0000
  O   O35       1.0  0.45656  0.49147  0.44493  1.0000
  C   C105      1.0  0.12173  0.95976  0.77168  1.0000
  H   H137      1.0  0.10632  0.93825  0.76591  1.0000
  H   H138      1.0  0.13607  0.95369  0.79379  1.0000
  H   H139      1.0  0.81573  0.49633  0.73017  1.0000
  H   H140      1.0  0.52806  0.69242  0.94265  1.0000
  N   N36       1.0  0.98439  0.18931  0.41408  1.0000
  C   C106      1.0  0.00126  0.18082  0.43936  1.0000
  C   C107      1.0  0.99248  0.21963  0.39622  1.0000
  B   B36       1.0  0.97460  0.05978  0.51227  1.0000
  O   O36       1.0  0.95583  0.99172  0.94543  1.0000
  C   C108      1.0  0.62404  0.46231  0.27189  1.0000
  H   H141      1.0  0.60822  0.44097  0.26661  1.0000
  H   H142      1.0  0.63884  0.45612  0.29365  1.0000
  H   H143      1.0  0.31560  0.99606  0.22882  1.0000
  H   H144      1.0  0.02172  0.19561  0.44928  1.0000
  N   N37       1.0  0.98349  0.81025  0.08545  1.0000
  C   C109      1.0  0.00129  0.81955  0.06117  1.0000
  C   C110      1.0  0.99263  0.78052  0.10398  1.0000
  B   B37       1.0  0.97198  0.93764  0.98433  1.0000
  O   O37       1.0  0.95604  0.00830  0.55313  1.0000
  C   C111      1.0  0.62611  0.53743  0.22800  1.0000
  H   H145      1.0  0.61147  0.55956  0.23290  1.0000
  H   H146      1.0  0.64159  0.54277  0.20656  1.0000
  H   H147      1.0  0.31599  0.00564  0.27153  1.0000
  H   H148      1.0  0.02331  0.80617  0.05308  1.0000
  N   N38       1.0  0.48057  0.30879  0.58301  1.0000
  C   C112      1.0  0.50030  0.31871  0.56056  1.0000
  C   C113      1.0  0.48954  0.28023  0.60329  1.0000
  B   B38       1.0  0.47124  0.43453  0.48031  1.0000
  O   O38       1.0  0.45661  0.51047  0.05410  1.0000
  C   C114      1.0  0.12308  0.03482  0.72770  1.0000
  H   H149      1.0  0.10786  0.05660  0.73253  1.0000
  H   H150      1.0  0.13839  0.04042  0.70624  1.0000
  H   H151      1.0  0.81611  0.50614  0.77281  1.0000
  H   H152      1.0  0.52381  0.30656  0.55522  1.0000
  N   N39       1.0  0.01653  0.30960  0.41608  1.0000
  C   C115      1.0  0.99640  0.32075  0.43760  1.0000
  C   C116      1.0  0.00753  0.28025  0.39655  1.0000
  B   B39       1.0  0.02467  0.43936  0.51527  1.0000
  O   O39       1.0  0.04527  0.50673  0.94667  1.0000
  C   C117      1.0  0.37545  0.03896  0.27227  1.0000
  H   H153      1.0  0.39050  0.06081  0.26716  1.0000
  H   H154      1.0  0.36054  0.04466  0.29402  1.0000
  H   H155      1.0  0.68460  0.50326  0.22876  1.0000
  H   H156      1.0  0.97264  0.30901  0.44288  1.0000
  N   N40       1.0  0.51631  0.81196  0.91638  1.0000
  C   C118      1.0  0.50086  0.81915  0.94291  1.0000
  C   C119      1.0  0.50831  0.78191  0.89779  1.0000
  B   B40       1.0  0.52662  0.94112  0.01595  1.0000
  O   O40       1.0  0.54205  0.00734  0.44818  1.0000
  C   C120      1.0  0.87584  0.53911  0.77341  1.0000
  H   H157      1.0  0.89109  0.56080  0.76816  1.0000
  H   H158      1.0  0.86133  0.54490  0.79542  1.0000
  H   H159      1.0  0.18266  0.00220  0.73030  1.0000
  H   H160      1.0  0.48172  0.80332  0.95355  1.0000
  N   N41       1.0  0.18997  0.58378  0.51651  1.0000
  C   C121      1.0  0.18074  0.55903  0.49897  1.0000
  C   C122      1.0  0.21987  0.60197  0.50774  1.0000
  B   B41       1.0  0.06107  0.48505  0.52770  1.0000
  O   O41       1.0  0.99486  0.05025  0.53824  1.0000
  C   C123      1.0  0.46408  0.72935  0.87385  1.0000
  H   H161      1.0  0.44231  0.73378  0.88904  1.0000
  H   H162      1.0  0.45899  0.70754  0.85855  1.0000
  H   H163      1.0  0.99694  0.77019  0.18648  1.0000
  H   H164      1.0  0.19454  0.54985  0.47753  1.0000
  N   N42       1.0  0.68996  0.08641  0.01358  1.0000
  C   C124      1.0  0.67946  0.06325  0.99467  1.0000
  C   C125      1.0  0.71993  0.10445  0.00499  1.0000
  B   B42       1.0  0.56008  0.98966  0.02484  1.0000
  O   O42       1.0  0.49028  0.55825  0.04478  1.0000
  C   C126      1.0  0.96240  0.22770  0.37474  1.0000
  H   H165      1.0  0.94117  0.23271  0.39053  1.0000
  H   H166      1.0  0.95636  0.20591  0.35971  1.0000
  H   H167      1.0  0.49183  0.27395  0.68588  1.0000
  H   H168      1.0  0.69218  0.05540  0.97205  1.0000
  N   N43       1.0  0.68943  0.91580  0.48479  1.0000
  C   C127      1.0  0.68221  0.94226  0.50058  1.0000
  C   C128      1.0  0.71928  0.89749  0.49309  1.0000
  B   B43       1.0  0.56193  0.01586  0.47489  1.0000
  O   O43       1.0  0.49174  0.44493  0.45505  1.0000
  C   C129      1.0  0.96340  0.77197  0.12629  1.0000
  H   H169      1.0  0.94162  0.76680  0.11116  1.0000
  H   H170      1.0  0.95772  0.79350  0.14174  1.0000
  H   H171      1.0  0.49655  0.73185  0.81431  1.0000
  H   H172      1.0  0.69775  0.95280  0.52021  1.0000
  N   N44       1.0  0.19289  0.41653  0.98270  1.0000
  C   C130      1.0  0.18291  0.43973  0.00173  1.0000
  C   C131      1.0  0.22206  0.39757  0.99213  1.0000
  B   B44       1.0  0.06487  0.51559  0.97351  1.0000
  O   O44       1.0  0.99036  0.94511  0.95651  1.0000
  C   C132      1.0  0.45979  0.27244  0.62515  1.0000
  H   H173      1.0  0.43843  0.26659  0.60966  1.0000
  H   H174      1.0  0.45363  0.29448  0.63967  1.0000
  H   H175      1.0  0.99359  0.22880  0.31430  1.0000
  H   H176      1.0  0.19560  0.44684  0.02472  1.0000
  N   N45       1.0  0.80913  0.08354  0.98172  1.0000
  C   C133      1.0  0.82009  0.06208  0.00210  1.0000
  C   C134      1.0  0.78010  0.10318  0.99022  1.0000
  B   B45       1.0  0.93754  0.98484  0.97352  1.0000
  O   O45       1.0  0.00958  0.55213  0.95838  1.0000
  C   C135      1.0  0.53492  0.22931  0.62744  1.0000
  H   H177      1.0  0.55658  0.23426  0.61227  1.0000
  H   H178      1.0  0.54088  0.20832  0.64337  1.0000
  H   H179      1.0  0.00312  0.27149  0.31420  1.0000
  H   H180      1.0  0.80823  0.05661  0.02583  1.0000
  N   N46       1.0  0.31001  0.58307  0.48463  1.0000
  C   C136      1.0  0.31612  0.55508  0.49787  1.0000
  C   C137      1.0  0.27996  0.60106  0.49261  1.0000
  B   B46       1.0  0.43560  0.48100  0.46980  1.0000
  O   O46       1.0  0.50508  0.05144  0.46160  1.0000
  C   C138      1.0  0.03835  0.72853  0.12477  1.0000
  H   H181      1.0  0.05952  0.73410  0.10912  1.0000
  H   H182      1.0  0.04474  0.70683  0.13953  1.0000
  H   H183      1.0  0.50630  0.77448  0.81545  1.0000
  H   H184      1.0  0.29945  0.54284  0.51524  1.0000
  N   N47       1.0  0.31164  0.41681  0.01575  1.0000
  C   C139      1.0  0.32189  0.43905  0.99589  1.0000
  C   C140      1.0  0.28215  0.39767  0.00750  1.0000
  B   B47       1.0  0.43718  0.51884  0.02711  1.0000
  O   O47       1.0  0.50806  0.94964  0.04334  1.0000
  C   C141      1.0  0.03671  0.27266  0.37385  1.0000
  H   H185      1.0  0.05872  0.26794  0.38871  1.0000
  H   H186      1.0  0.04182  0.29440  0.35864  1.0000
  H   H187      1.0  0.50173  0.23140  0.68694  1.0000
  H   H188      1.0  0.30956  0.44510  0.97248  1.0000
  N   N48       1.0  0.80846  0.91626  0.51843  1.0000
  C   C142      1.0  0.81953  0.93768  0.49809  1.0000
  C   C143      1.0  0.77927  0.89693  0.50911  1.0000
  B   B48       1.0  0.93731  0.01546  0.52533  1.0000
  O   O48       1.0  0.00501  0.44834  0.54177  1.0000
  C   C144      1.0  0.53818  0.77445  0.87594  1.0000
  H   H189      1.0  0.55967  0.76929  0.89142  1.0000
  H   H190      1.0  0.54391  0.79644  0.86133  1.0000
  H   H191      1.0  0.00664  0.72761  0.18473  1.0000
  H   H192      1.0  0.80777  0.94286  0.47417  1.0000
  C   C145      1.0  0.25071  0.66768  0.49929  1.0000
  C   C146      1.0  0.25131  0.33160  0.00216  1.0000
  C   C147      1.0  0.75138  0.16996  0.99711  1.0000
  C   C148      1.0  0.74878  0.83103  0.49964  1.0000
  C   C149      1.0  0.49688  0.25225  0.67045  1.0000
  C   C150      1.0  0.99881  0.25017  0.33022  1.0000
  C   C151      1.0  0.00160  0.74946  0.16965  1.0000
  C   C152      1.0  0.50153  0.75282  0.83085  1.0000
  C   C153      1.0  0.66873  0.49892  0.25012  1.0000
  C   C154      1.0  0.33166  0.00108  0.25005  1.0000
  C   C155      1.0  0.16614  0.99721  0.75102  1.0000
  C   C156      1.0  0.83180  0.50135  0.75139  1.0000
  C   C157      1.0  0.91918  0.50190  0.75057  1.0000
  C   C158      1.0  0.58145  0.50112  0.24989  1.0000
  C   C159      1.0  0.41903  0.00162  0.24985  1.0000
  C   C160      1.0  0.07889  0.99726  0.74860  1.0000
  C   C161      1.0  0.50060  0.75130  0.91882  1.0000
  C   C162      1.0  0.49791  0.24944  0.58249  1.0000
  C   C163      1.0  0.00069  0.24974  0.41822  1.0000
  C   C164      1.0  0.00030  0.75052  0.08169  1.0000
  C   C165      1.0  0.74935  0.91899  0.50177  1.0000
  C   C166      1.0  0.24972  0.57971  0.50069  1.0000
  C   C167      1.0  0.25235  0.41944  0.99897  1.0000
  C   C168      1.0  0.74956  0.08193  0.99769  1.0000
  C   C169      1.0  0.29016  0.70350  0.62525  1.0000
  C   C170      1.0  0.26258  0.70438  0.60479  1.0000
  C  Sn1       1.0  0.23799  0.72762  0.61029  1.0000
  C  Sn2       1.0  0.24114  0.75036  0.63678  1.0000
  C   C171      1.0  0.26884  0.74929  0.65710  1.0000
  C   C172      1.0  0.29329  0.72593  0.65138  1.0000
  H   H193      1.0  0.30909  0.68544  0.62082  1.0000
  O  Te1       1.0  0.21060  0.72815  0.58962  1.0000
  O  Te2       1.0  0.21694  0.77385  0.64282  1.0000
  H   H194      1.0  0.31465  0.72527  0.66721  1.0000
  Mg  Mg1       1.0  0.18418  0.76477  0.60784  1.0000
  C   C173      1.0  0.78903  0.20990  0.14288  1.0000
  C   C174      1.0  0.77558  0.23973  0.15348  1.0000
  C  Sn3       1.0  0.75109  0.25502  0.13495  1.0000
  C  Sn4       1.0  0.73991  0.24009  0.10528  1.0000
  C   C175      1.0  0.75351  0.21024  0.09489  1.0000
  C   C176      1.0  0.77801  0.19516  0.11362  1.0000
  H   H195      1.0  0.80798  0.19822  0.15737  1.0000
  O  Te3       1.0  0.73793  0.28482  0.14590  1.0000
  O  Te4       1.0  0.71546  0.25483  0.08629  1.0000
  H   H196      1.0  0.78841  0.17205  0.10542  1.0000
  Mg  Mg2       1.0  0.70513  0.29537  0.11147  1.0000
  C   C177      1.0  0.21251  0.30012  0.12765  1.0000
  C   C178      1.0  0.24024  0.29896  0.10762  1.0000
  C  Sn5       1.0  0.26406  0.27483  0.11265  1.0000
  C  Sn6       1.0  0.25997  0.25147  0.13823  1.0000
  C   C179      1.0  0.23213  0.25282  0.15813  1.0000
  C   C180      1.0  0.20845  0.27707  0.15288  1.0000
  H   H197      1.0  0.19417  0.31887  0.12358  1.0000
  O  Te5       1.0  0.29162  0.27403  0.09242  1.0000
  O  Te6       1.0  0.28339  0.22709  0.14380  1.0000
  H   H198      1.0  0.18697  0.27795  0.16839  1.0000
  Mg  Mg3       1.0  0.31675  0.23613  0.10970  1.0000
  C   C181      1.0  0.70845  0.79328  0.62308  1.0000
  C   C182      1.0  0.73694  0.79401  0.60412  1.0000
  C  Sn7       1.0  0.76295  0.77295  0.61144  1.0000
  C  Sn8       1.0  0.76031  0.75076  0.63824  1.0000
  C   C183      1.0  0.73170  0.75021  0.65704  1.0000
  C   C184      1.0  0.70583  0.77140  0.64951  1.0000
  H   H199      1.0  0.68842  0.80967  0.61724  1.0000
  O  Te7       1.0  0.79124  0.77401  0.59226  1.0000
  O  Te8       1.0  0.78593  0.72943  0.64609  1.0000
  H   H200      1.0  0.68377  0.77081  0.66418  1.0000
  Mg  Mg4       1.0  0.81950  0.74010  0.61268  1.0000
  C   C185      1.0  0.71136  0.21047  0.85346  1.0000
  C   C186      1.0  0.72563  0.23982  0.84265  1.0000
  C  Sn9       1.0  0.75219  0.25350  0.85970  1.0000
  C  Sn10      1.0  0.76465  0.23744  0.88808  1.0000
  C   C187      1.0  0.75022  0.20808  0.89868  1.0000
  C   C188      1.0  0.72365  0.19461  0.88145  1.0000
  H   H201      1.0  0.69081  0.20003  0.84012  1.0000
  O  Te9       1.0  0.76615  0.28284  0.84857  1.0000
  O  Te10      1.0  0.79119  0.25057  0.90557  1.0000
  H   H202      1.0  0.71262  0.17188  0.88981  1.0000
  Mg  Mg5       1.0  0.80188  0.29106  0.88072  1.0000
  C   C189      1.0  0.21094  0.70968  0.35618  1.0000
  C   C190      1.0  0.22627  0.73845  0.34529  1.0000
  C  Sn11      1.0  0.25336  0.75114  0.36225  1.0000
  C  Sn12      1.0  0.26527  0.73468  0.39064  1.0000
  C   C191      1.0  0.24977  0.70590  0.40132  1.0000
  C   C192      1.0  0.22267  0.69342  0.38417  1.0000
  H   H203      1.0  0.18998  0.70001  0.34290  1.0000
  O  Te11      1.0  0.26838  0.77992  0.35104  1.0000
  O  Te12      1.0  0.29230  0.74682  0.40805  1.0000
  H   H204      1.0  0.21082  0.67113  0.39259  1.0000
  Mg  Mg6       1.0  0.30446  0.78683  0.38311  1.0000
  C   C193      1.0  0.79277  0.78767  0.35928  1.0000
  C   C194      1.0  0.77617  0.76039  0.34625  1.0000
  C  Sn13      1.0  0.74637  0.75034  0.35973  1.0000
  C  Sn14      1.0  0.73298  0.76799  0.38675  1.0000
  C   C195      1.0  0.74976  0.79526  0.39959  1.0000
  C   C196      1.0  0.77957  0.80510  0.38592  1.0000
  H   H205      1.0  0.81583  0.79529  0.34869  1.0000
  O  Te13      1.0  0.73012  0.72303  0.34641  1.0000
  O  Te14      1.0  0.70322  0.75849  0.40068  1.0000
  H   H206      1.0  0.79240  0.82623  0.39601  1.0000
  Mg  Mg7       1.0  0.69029  0.71964  0.37391  1.0000
  C   C197      1.0  0.28961  0.29432  0.87626  1.0000
  C   C198      1.0  0.26455  0.29049  0.89930  1.0000
  C  Sn15      1.0  0.24309  0.26370  0.89703  1.0000
  C  Sn16      1.0  0.24685  0.24036  0.87118  1.0000
  C   C199      1.0  0.27201  0.24441  0.84827  1.0000
  C   C200      1.0  0.29334  0.27131  0.85077  1.0000
  H   H207      1.0  0.30612  0.31512  0.87820  1.0000
  O  Te15      1.0  0.21819  0.26025  0.92025  1.0000
  O  Te16      1.0  0.22575  0.21335  0.86834  1.0000
  H   H208      1.0  0.31275  0.27426  0.83294  1.0000
  Mg  Mg8       1.0  0.19559  0.21934  0.90597  1.0000
  C   C201      1.0  0.61190  0.23644  0.74231  1.0000
  C   C202      1.0  0.59698  0.25529  0.71776  1.0000
  C  Sn17      1.0  0.61297  0.28285  0.70494  1.0000
  C  Sn18      1.0  0.64448  0.29164  0.71696  1.0000
  C   C203      1.0  0.65921  0.27260  0.74151  1.0000
  C   C204      1.0  0.64298  0.24508  0.75417  1.0000
  H   H209      1.0  0.59936  0.21513  0.75210  1.0000
  O  Te17      1.0  0.59771  0.30142  0.68043  1.0000
  O  Te18      1.0  0.66101  0.31906  0.70457  1.0000
  H   H210      1.0  0.65455  0.23047  0.77316  1.0000
  Mg  Mg9       1.0  0.63009  0.33661  0.67135  1.0000
  C   C205      1.0  0.14637  0.78819  0.20809  1.0000
  C   C206      1.0  0.15735  0.77410  0.23748  1.0000
  C  Sn19      1.0  0.13946  0.74882  0.25229  1.0000
  C  Sn20      1.0  0.11005  0.73748  0.23733  1.0000
  C   C207      1.0  0.09928  0.75172  0.20791  1.0000
  C   C208      1.0  0.11737  0.77701  0.19332  1.0000
  H   H211      1.0  0.16037  0.80774  0.19678  1.0000
  O  Te19      1.0  0.15077  0.73502  0.28165  1.0000
  O  Te20      1.0  0.09169  0.71224  0.25159  1.0000
  H   H212      1.0  0.10887  0.78790  0.17055  1.0000
  Mg  Mg10      1.0  0.11719  0.70125  0.29165  1.0000
  C   C209      1.0  0.12739  0.26276  0.24595  1.0000
  C   C210      1.0  0.15104  0.23860  0.25169  1.0000
  C  Sn21      1.0  0.14672  0.21566  0.27689  1.0000
  C  Sn22      1.0  0.11817  0.21698  0.29666  1.0000
  C   C211      1.0  0.09465  0.24122  0.29071  1.0000
  C   C212      1.0  0.09922  0.26407  0.26543  1.0000
  H   H213      1.0  0.13092  0.28042  0.22638  1.0000
  O  Te21      1.0  0.17059  0.19169  0.28230  1.0000
  O  Te22      1.0  0.11323  0.19434  0.32200  1.0000
  H   H214      1.0  0.08090  0.28276  0.26098  1.0000
  Mg  Mg11      1.0  0.15277  0.16630  0.31979  1.0000
  C   C213      1.0  0.63042  0.76536  0.74858  1.0000
  C   C214      1.0  0.65427  0.74152  0.75472  1.0000
  C  Sn23      1.0  0.65023  0.71906  0.78040  1.0000
  C  Sn24      1.0  0.62174  0.72056  0.80025  1.0000
  C   C215      1.0  0.59801  0.74449  0.79389  1.0000
  C   C216      1.0  0.60231  0.76684  0.76814  1.0000
  H   H215      1.0  0.63373  0.78265  0.72864  1.0000
  O  Te23      1.0  0.67431  0.69540  0.78621  1.0000
  O  Te24      1.0  0.61708  0.69841  0.82607  1.0000
  H   H216      1.0  0.58382  0.78529  0.76337  1.0000
  Mg  Mg12      1.0  0.65683  0.67064  0.82428  1.0000
  C   C217      1.0  0.86236  0.70530  0.21499  1.0000
  C   C218      1.0  0.84984  0.72177  0.24249  1.0000
  C  Sn25      1.0  0.86436  0.75102  0.25357  1.0000
  C  Sn26      1.0  0.89190  0.76396  0.23675  1.0000
  C   C219      1.0  0.90422  0.74731  0.20924  1.0000
  C   C220      1.0  0.88952  0.71805  0.19837  1.0000
  H   H217      1.0  0.85098  0.68267  0.20656  1.0000
  O  Te25      1.0  0.85155  0.76716  0.28110  1.0000
  O  Te26      1.0  0.90687  0.79316  0.24729  1.0000
  H   H218      1.0  0.89920  0.70531  0.17706  1.0000
  Mg  Mg13      1.0  0.88045  0.80615  0.28603  1.0000
  C   C221      1.0  0.36864  0.26058  0.75405  1.0000
  C   C222      1.0  0.34432  0.23728  0.74702  1.0000
  C  Sn27      1.0  0.34803  0.21538  0.72063  1.0000
  C  Sn28      1.0  0.37664  0.21690  0.70097  1.0000
  C   C223      1.0  0.40084  0.24029  0.70822  1.0000
  C   C224      1.0  0.39687  0.26209  0.73467  1.0000
  H   H219      1.0  0.36558  0.27743  0.77453  1.0000
  O  Te27      1.0  0.32350  0.19226  0.71394  1.0000
  O  Te28      1.0  0.38098  0.19531  0.67445  1.0000
  H   H220      1.0  0.41571  0.28011  0.74012  1.0000
  Mg  Mg14      1.0  0.34065  0.16815  0.67516  1.0000
  C   C225      1.0  0.37896  0.79396  0.79283  1.0000
  C   C226      1.0  0.39509  0.76389  0.79675  1.0000
  C  Sn29      1.0  0.38528  0.73630  0.77848  1.0000
  C  Sn30      1.0  0.35883  0.73894  0.75588  1.0000
  C   C227      1.0  0.34287  0.76914  0.75212  1.0000
  C   C228      1.0  0.35289  0.79659  0.77054  1.0000
  H   H221      1.0  0.38672  0.81521  0.80707  1.0000
  O  Te29      1.0  0.40164  0.70644  0.78270  1.0000
  O  Te30      1.0  0.34853  0.71176  0.73729  1.0000
  H   H222      1.0  0.34041  0.81988  0.76749  1.0000
  Mg  Mg15      1.0  0.37856  0.67639  0.75176  1.0000
  C   C229      1.0  0.85755  0.29160  0.28857  1.0000
  C   C230      1.0  0.84417  0.27428  0.26187  1.0000
  C  Sn31      1.0  0.85801  0.24452  0.25163  1.0000
  C  Sn32      1.0  0.88576  0.23192  0.26847  1.0000
  C   C231      1.0  0.89895  0.24943  0.29516  1.0000
  C   C232      1.0  0.88491  0.27919  0.30520  1.0000
  H   H223      1.0  0.84667  0.31462  0.29635  1.0000
  O  Te31      1.0  0.84435  0.22753  0.22490  1.0000
  O  Te32      1.0  0.90008  0.20223  0.25876  1.0000
  H   H224      1.0  0.89526  0.29259  0.32589  1.0000
  Mg  Mg16      1.0  0.87259  0.18811  0.22093  1.0000
  C   C233      1.0  0.71299  0.64159  0.29125  1.0000
  C   C234      1.0  0.74253  0.65177  0.27727  1.0000
  C  Sn33      1.0  0.75622  0.63398  0.25120  1.0000
  C  Sn34      1.0  0.73998  0.60549  0.23895  1.0000
  C   C235      1.0  0.71042  0.59552  0.25309  1.0000
  C   C236      1.0  0.69695  0.61350  0.27917  1.0000
  H   H225      1.0  0.70256  0.65551  0.31142  1.0000
  O  Te33      1.0  0.78576  0.64449  0.23752  1.0000
  O  Te34      1.0  0.75311  0.58726  0.21291  1.0000
  H   H226      1.0  0.67407  0.60562  0.28998  1.0000
  Mg  Mg17      1.0  0.79390  0.61145  0.20245  1.0000
  C   C237      1.0  0.24565  0.12919  0.73471  1.0000
  C   C238      1.0  0.24435  0.14993  0.76226  1.0000
  C  Sn35      1.0  0.22306  0.14287  0.78818  1.0000
  C  Sn36      1.0  0.20274  0.11450  0.78642  1.0000
  C   C239      1.0  0.20424  0.09390  0.75876  1.0000
  C   C240      1.0  0.22562  0.10120  0.73296  1.0000
  H   H227      1.0  0.26220  0.13483  0.71475  1.0000
  O  Te35      1.0  0.22206  0.16385  0.81552  1.0000
  O  Te36      1.0  0.18125  0.10686  0.81198  1.0000
  H   H228      1.0  0.22664  0.08513  0.71164  1.0000
  Mg  Mg18      1.0  0.18875  0.14301  0.84408  1.0000
  C   C241      1.0  0.24742  0.12926  0.26277  1.0000
  C   C242      1.0  0.25238  0.15315  0.23857  1.0000
  C  Sn37      1.0  0.27740  0.14937  0.21547  1.0000
  C  Sn38      1.0  0.29778  0.12114  0.21669  1.0000
  C   C243      1.0  0.29260  0.09738  0.24098  1.0000
  C   C244      1.0  0.26750  0.10140  0.26398  1.0000
  H   H229      1.0  0.22799  0.13237  0.28055  1.0000
  O  Te37      1.0  0.28203  0.17348  0.19147  1.0000
  O  Te38      1.0  0.32296  0.11675  0.19391  1.0000
  H   H230      1.0  0.26365  0.08290  0.28270  1.0000
  Mg  Mg19      1.0  0.31959  0.15642  0.16586  1.0000
  C   C245      1.0  0.78730  0.64211  0.70968  1.0000
  C   C246      1.0  0.76083  0.65523  0.72703  1.0000
  C  Sn39      1.0  0.75158  0.64176  0.75724  1.0000
  C  Sn40      1.0  0.76920  0.61466  0.77027  1.0000
  C   C247      1.0  0.79566  0.60173  0.75273  1.0000
  C   C248      1.0  0.80471  0.61540  0.72252  1.0000
  H   H231      1.0  0.79431  0.65270  0.68632  1.0000
  O  Te39      1.0  0.72506  0.65516  0.77425  1.0000
  O  Te40      1.0  0.76049  0.60073  0.80041  1.0000
  H   H232      1.0  0.82521  0.60525  0.70911  1.0000
  Mg  Mg20      1.0  0.72257  0.62763  0.81436  1.0000
  C   C249      1.0  0.21099  0.85730  0.70886  1.0000
  C   C250      1.0  0.23912  0.84600  0.72488  1.0000
  C  Sn41      1.0  0.24989  0.86116  0.75396  1.0000
  C  Sn42      1.0  0.23213  0.88812  0.76718  1.0000
  C   C251      1.0  0.20400  0.89923  0.75097  1.0000
  C   C252      1.0  0.19344  0.88389  0.72189  1.0000
  H   H233      1.0  0.20281  0.84543  0.68637  1.0000
  O  Te41      1.0  0.27805  0.84956  0.76965  1.0000
  O  Te42      1.0  0.24234  0.90371  0.79621  1.0000
  H   H234      1.0  0.17165  0.89263  0.70950  1.0000
  Mg  Mg21      1.0  0.28221  0.87893  0.80857  1.0000
  C   C253      1.0  0.71055  0.35687  0.20899  1.0000
  C   C254      1.0  0.73836  0.34521  0.22531  1.0000
  C  Sn43      1.0  0.74964  0.36089  0.25391  1.0000
  C  Sn44      1.0  0.73271  0.38876  0.26635  1.0000
  C   C255      1.0  0.70489  0.40022  0.24986  1.0000
  C   C256      1.0  0.69382  0.38434  0.22126  1.0000
  H   H235      1.0  0.70197  0.34458  0.18687  1.0000
  O  Te43      1.0  0.77748  0.34893  0.26990  1.0000
  O  Te44      1.0  0.74344  0.40489  0.29490  1.0000
  H   H236      1.0  0.67227  0.39336  0.20864  1.0000
  Mg  Mg22      1.0  0.78258  0.37931  0.30793  1.0000
  C   C257      1.0  0.79722  0.37549  0.78828  1.0000
  C   C258      1.0  0.79704  0.39576  0.76051  1.0000
  C  Sn45      1.0  0.77409  0.39060  0.73538  1.0000
  C  Sn46      1.0  0.75093  0.36465  0.73817  1.0000
  C   C259      1.0  0.75130  0.34453  0.76606  1.0000
  C   C260      1.0  0.77437  0.34991  0.79105  1.0000
  H   H237      1.0  0.81506  0.37966  0.80763  1.0000
  O  Te45      1.0  0.77426  0.41106  0.70781  1.0000
  O  Te46      1.0  0.72772  0.35895  0.71342  1.0000
  H   H238      1.0  0.77450  0.33423  0.81256  1.0000
  Mg  Mg23      1.0  0.73778  0.39347  0.68061  1.0000
  C   C261      1.0  0.29864  0.87473  0.28876  1.0000
  C   C262      1.0  0.29738  0.89504  0.26106  1.0000
  C  Sn47      1.0  0.27439  0.88906  0.23615  1.0000
  C  Sn48      1.0  0.25226  0.86223  0.23911  1.0000
  C   C263      1.0  0.25370  0.84207  0.26694  1.0000
  C   C264      1.0  0.27682  0.84828  0.29171  1.0000
  H   H239      1.0  0.31651  0.87954  0.30794  1.0000
  O  Te47      1.0  0.27348  0.90958  0.20863  1.0000
  O  Te48      1.0  0.22903  0.85570  0.21460  1.0000
  H   H240      1.0  0.27777  0.83256  0.31317  1.0000
  Mg  Mg24      1.0  0.23741  0.89066  0.18177  1.0000
  C   C265      1.0  0.96535  0.54201  0.89193  1.0000
  C   C266      1.0  0.98884  0.52207  0.90699  1.0000
  C  Sn49      1.0  0.99861  0.49265  0.89202  1.0000
  C  Sn50      1.0  0.98456  0.48308  0.86139  1.0000
  C   C267      1.0  0.96110  0.50321  0.84652  1.0000
  C   C268      1.0  0.95149  0.53260  0.86172  1.0000
  H   H241      1.0  0.95793  0.56476  0.90368  1.0000
  O  Te49      1.0  0.02211  0.47301  0.90740  1.0000
  O  Te50      1.0  0.99389  0.45380  0.84588  1.0000
  H   H242      1.0  0.93331  0.54804  0.85005  1.0000
  Mg  Mg25      1.0  0.02682  0.43535  0.87658  1.0000
  C   C269      1.0  0.44871  0.03572  0.38057  1.0000
  C   C270      1.0  0.45674  0.01536  0.35395  1.0000
  C  Sn51      1.0  0.48647  0.99468  0.35572  1.0000
  C  Sn52      1.0  0.50599  0.99443  0.38473  1.0000
  C   C271      1.0  0.49524  0.01487  0.41123  1.0000
  C   C272      1.0  0.46793  0.03547  0.40919  1.0000
  H   H243      1.0  0.42757  0.05164  0.37900  1.0000
  O  Te51      1.0  0.49415  0.97451  0.32889  1.0000
  O  Te52      1.0  0.53334  0.97400  0.38716  1.0000
  H   H244      1.0  0.46171  0.05122  0.42982  1.0000
  Mg  Mg26      1.0  0.53384  0.95097  0.34404  1.0000
  C   C273      1.0  0.50052  0.51593  0.38062  1.0000
  C   C274      1.0  0.50134  0.48797  0.40059  1.0000
  C  Sn53      1.0  0.52460  0.46340  0.39506  1.0000
  C  Sn54      1.0  0.54743  0.46696  0.36904  1.0000
  C   C275      1.0  0.54642  0.49503  0.34921  1.0000
  C   C276      1.0  0.52304  0.51947  0.35496  1.0000
  H   H245      1.0  0.48244  0.53485  0.38508  1.0000
  O  Te53      1.0  0.52507  0.43561  0.41524  1.0000
  O  Te54      1.0  0.57095  0.44277  0.36297  1.0000
  H   H246      1.0  0.52242  0.54113  0.33951  1.0000
  Mg  Mg27      1.0  0.56176  0.40939  0.39719  1.0000
  C   C277      1.0  0.04373  0.95909  0.87382  1.0000
  C   C278      1.0  0.03958  0.98445  0.85099  1.0000
  C  Sn55      1.0  0.01393  0.00912  0.85657  1.0000
  C  Sn56      1.0  0.99462  0.00833  0.88555  1.0000
  C   C279      1.0  0.00148  0.98287  0.90824  1.0000
  C   C280      1.0  0.02471  0.95830  0.90242  1.0000
  H   H247      1.0  0.06172  0.94009  0.86932  1.0000
  O  Te55      1.0  0.01009  0.03427  0.83350  1.0000
  O  Te56      1.0  0.97131  0.03268  0.89174  1.0000
  H   H248      1.0  0.02793  0.93868  0.92010  1.0000
  Mg  Mg28      1.0  0.97513  0.06185  0.85294  1.0000
  C   C281      1.0  0.48704  0.02452  0.13293  1.0000
  C   C282      1.0  0.46092  0.00654  0.14594  1.0000
  C  Sn57      1.0  0.45475  0.97606  0.13230  1.0000
  C  Sn58      1.0  0.47261  0.96341  0.10514  1.0000
  C   C283      1.0  0.49872  0.98157  0.09232  1.0000
  C   C284      1.0  0.50468  0.01205  0.10615  1.0000
  H   H249      1.0  0.49360  0.04810  0.14364  1.0000
  O  Te57      1.0  0.42857  0.95842  0.14559  1.0000
  O  Te58      1.0  0.46448  0.93300  0.09104  1.0000
  H   H250      1.0  0.52492  0.02596  0.09609  1.0000
  Mg  Mg29      1.0  0.42685  0.91817  0.11785  1.0000
  C   C285      1.0  0.99927  0.51639  0.61973  1.0000
  C   C286      1.0  0.99682  0.48926  0.59853  1.0000
  C  Sn59      1.0  0.97206  0.46588  0.60292  1.0000
  C  Sn60      1.0  0.94937  0.46982  0.62903  1.0000
  C   C287      1.0  0.95203  0.49706  0.65009  1.0000
  C   C288      1.0  0.97690  0.52030  0.64548  1.0000
  H   H251      1.0  0.01850  0.53438  0.61615  1.0000
  O  Te59      1.0  0.96997  0.43891  0.58152  1.0000
  O  Te60      1.0  0.92439  0.44683  0.63397  1.0000
  H   H252      1.0  0.97878  0.54132  0.66189  1.0000
  Mg  Mg30      1.0  0.93165  0.41422  0.59831  1.0000
  C   C289      1.0  0.00259  0.98741  0.63825  1.0000
  C   C290      1.0  0.03303  0.99959  0.64844  1.0000
  C  Sn61      1.0  0.04701  0.02291  0.62940  1.0000
  C  Sn62      1.0  0.03267  0.03421  0.59962  1.0000
  C   C291      1.0  0.00219  0.02189  0.58966  1.0000
  C   C292      1.0  0.98842  0.99855  0.60890  1.0000
  H   H253      1.0  0.98999  0.96937  0.65314  1.0000
  O  Te61      1.0  0.07741  0.03481  0.63993  1.0000
  O  Te62      1.0  0.04860  0.05751  0.58013  1.0000
  H   H254      1.0  0.96484  0.98914  0.60102  1.0000
  Mg  Mg31      1.0  0.08958  0.06635  0.60488  1.0000
  C   C293      1.0  0.50415  0.48466  0.11551  1.0000
  C   C294      1.0  0.50174  0.51444  0.09851  1.0000
  C  Sn63      1.0  0.52278  0.54058  0.10618  1.0000
  C  Sn64      1.0  0.54667  0.53677  0.13134  1.0000
  C   C295      1.0  0.54890  0.50688  0.14820  1.0000
  C   C296      1.0  0.52771  0.48088  0.14033  1.0000
  H   H255      1.0  0.48777  0.46454  0.10942  1.0000
  O  Te63      1.0  0.52003  0.57017  0.08895  1.0000
  O  Te64      1.0  0.56802  0.56250  0.13950  1.0000
  H   H256      1.0  0.52959  0.45782  0.15349  1.0000
  Mg  Mg32      1.0  0.55468  0.59805  0.10903  1.0000
  C   C297      1.0  0.48725  0.86292  0.99658  1.0000
  C   C298      1.0  0.50135  0.85181  0.96724  1.0000
  C  Sn65      1.0  0.52676  0.86959  0.95268  1.0000
  C  Sn66      1.0  0.53824  0.89903  0.96783  1.0000
  C   C299      1.0  0.52399  0.90992  0.99719  1.0000
  C   C300      1.0  0.49492  0.88762  0.01154  1.0000
  H   H257      1.0  0.46395  0.84468  0.00770  1.0000
  O  Te65      1.0  0.54056  0.85814  0.92336  1.0000
  O  Te66      1.0  0.56361  0.91727  0.95381  1.0000
  H   H258      1.0  0.48403  0.89622  0.03427  1.0000
  Mg  Mg33      1.0  0.57455  0.89161  0.91373  1.0000
  C   C301      1.0  0.98208  0.38310  0.49737  1.0000
  C   C302      1.0  0.01010  0.40292  0.49736  1.0000
  C  Sn67      1.0  0.03516  0.39699  0.47477  1.0000
  C  Sn68      1.0  0.03203  0.37071  0.45178  1.0000
  C   C303      1.0  0.00388  0.35104  0.45197  1.0000
  C   C304      1.0  0.97896  0.35718  0.47469  1.0000
  H   H259      1.0  0.96279  0.38786  0.51494  1.0000
  O  Te67      1.0  0.06300  0.41702  0.47511  1.0000
  O  Te68      1.0  0.05669  0.36424  0.42892  1.0000
  H   H260      1.0  0.95726  0.34185  0.47468  1.0000
  Mg  Mg34      1.0  0.08996  0.39840  0.43911  1.0000
  C   C305      1.0  0.51674  0.36249  0.50796  1.0000
  C   C306      1.0  0.49978  0.35042  0.53524  1.0000
  C  Sn69      1.0  0.47033  0.36490  0.54493  1.0000
  C  Sn70      1.0  0.45768  0.39196  0.52691  1.0000
  C   C307      1.0  0.47482  0.40383  0.49964  1.0000
  C   C308      1.0  0.50427  0.38916  0.49017  1.0000
  H   H261      1.0  0.53952  0.35113  0.50062  1.0000
  O  Te69      1.0  0.45371  0.35255  0.57225  1.0000
  O  Te70      1.0  0.42829  0.40688  0.53605  1.0000
  H   H262      1.0  0.51739  0.39849  0.46904  1.0000
  Mg  Mg35      1.0  0.41462  0.38120  0.57506  1.0000
  C   C309      1.0  0.01567  0.86345  0.00817  1.0000
  C   C310      1.0  0.00030  0.85186  0.03659  1.0000
  C  Sn71      1.0  0.97226  0.86746  0.04853  1.0000
  C  Sn72      1.0  0.95944  0.89516  0.03166  1.0000
  C   C311      1.0  0.97499  0.90655  0.00325  1.0000
  C   C312      1.0  0.00668  0.89508  0.99151  1.0000
  H   H263      1.0  0.04100  0.85555  0.99908  1.0000
  O  Te71      1.0  0.95721  0.85557  0.07696  1.0000
  O  Te72      1.0  0.93144  0.91120  0.04306  1.0000
  H   H264      1.0  0.01856  0.90404  0.96950  1.0000
  Mg  Mg36      1.0  0.91965  0.88578  0.08285  1.0000
  C   C313      1.0  0.01456  0.11889  0.49910  1.0000
  C   C314      1.0  0.98849  0.09676  0.49568  1.0000
  C  Sn73      1.0  0.96533  0.10100  0.47065  1.0000
  C  Sn74      1.0  0.96839  0.12792  0.44866  1.0000
  C   C315      1.0  0.99458  0.14991  0.45227  1.0000
  C   C316      1.0  0.01761  0.14544  0.47742  1.0000
  H   H265      1.0  0.03240  0.11542  0.51855  1.0000
  O  Te73      1.0  0.93943  0.07866  0.46759  1.0000
  O  Te74      1.0  0.94560  0.13274  0.42341  1.0000
  H   H266      1.0  0.03780  0.16257  0.48005  1.0000
  Mg  Mg37      1.0  0.91459  0.09566  0.42927  1.0000
  C   C317      1.0  0.46166  0.62652  0.95222  1.0000
  C   C318      1.0  0.48775  0.64862  0.95567  1.0000
  C  Sn75      1.0  0.51217  0.64302  0.97918  1.0000
  C  Sn76      1.0  0.51037  0.61476  0.99956  1.0000
  C   C319      1.0  0.48418  0.59278  0.99590  1.0000
  C   C320      1.0  0.45987  0.59862  0.97230  1.0000
  H   H267      1.0  0.44286  0.63102  0.93395  1.0000
  O  Te75      1.0  0.53806  0.66536  0.98232  1.0000
  O  Te76      1.0  0.53081  0.60425  0.02325  1.0000
  H   H268      1.0  0.43968  0.58150  0.96962  1.0000
  Mg  Mg38      1.0  0.56126  0.64190  0.01817  1.0000
  C   C321      1.0  0.98240  0.61338  0.00073  1.0000
  C   C322      1.0  0.01027  0.59354  0.00224  1.0000
  C  Sn77      1.0  0.03426  0.59939  0.02621  1.0000
  C  Sn78      1.0  0.03019  0.62561  0.04907  1.0000
  C   C323      1.0  0.00220  0.64530  0.04738  1.0000
  C   C324      1.0  0.97836  0.63923  0.02328  1.0000
  H   H269      1.0  0.96758  0.61300  0.98210  1.0000
  O  Te77      1.0  0.06196  0.57934  0.02736  1.0000
  O  Te78      1.0  0.05377  0.63199  0.07329  1.0000
  H   H270      1.0  0.95677  0.65459  0.02214  1.0000
  Mg  Mg39      1.0  0.08728  0.59784  0.06487  1.0000
  C   C325      1.0  0.48150  0.11559  0.50577  1.0000
  C   C326      1.0  0.50966  0.09610  0.50621  1.0000
  C  Sn79      1.0  0.53461  0.10251  0.52901  1.0000
  C  Sn80      1.0  0.53124  0.12893  0.55176  1.0000
  C   C327      1.0  0.50296  0.14826  0.55114  1.0000
  C   C328      1.0  0.47815  0.14164  0.52821  1.0000
  H   H271      1.0  0.46229  0.11046  0.48805  1.0000
  O  Te79      1.0  0.56259  0.08281  0.52911  1.0000
  O  Te80      1.0  0.55580  0.13586  0.57482  1.0000
  H   H272      1.0  0.45634  0.15671  0.52789  1.0000
  Mg  Mg40      1.0  0.58932  0.10203  0.56523  1.0000
  C   C329      1.0  0.86485  0.98831  0.48028  1.0000
  C   C330      1.0  0.85223  0.96162  0.49784  1.0000
  C  Sn81      1.0  0.86669  0.95203  0.52754  1.0000
  C  Sn82      1.0  0.89427  0.96956  0.53984  1.0000
  C   C331      1.0  0.90669  0.99625  0.52211  1.0000
  C   C332      1.0  0.88955  0.00562  0.49240  1.0000
  H   H273      1.0  0.85351  0.99558  0.45731  1.0000
  O  Te81      1.0  0.85378  0.92529  0.54476  1.0000
  O  Te82      1.0  0.90918  0.96052  0.56947  1.0000
  H   H274      1.0  0.89930  0.02631  0.47883  1.0000
  Mg  Mg41      1.0  0.88264  0.92238  0.58397  1.0000
  C   C333      1.0  0.37755  0.45341  0.03716  1.0000
  C   C334      1.0  0.35461  0.45739  0.01186  1.0000
  C  Sn83      1.0  0.36284  0.48595  0.98795  1.0000
  C  Sn84      1.0  0.39093  0.50653  0.98945  1.0000
  C   C335      1.0  0.41011  0.49802  0.01485  1.0000
  C   C336      1.0  0.40528  0.47370  0.03865  1.0000
  H   H275      1.0  0.37383  0.43459  0.05558  1.0000
  O  Te83      1.0  0.33967  0.48960  0.96285  1.0000
  O  Te84      1.0  0.39612  0.53094  0.96586  1.0000
  H   H276      1.0  0.42306  0.47061  0.05823  1.0000
  Mg  Mg42      1.0  0.35759  0.52636  0.93644  1.0000
  C   C337      1.0  0.37682  0.54766  0.46248  1.0000
  C   C338      1.0  0.35104  0.53979  0.48360  1.0000
  C  Sn85      1.0  0.35289  0.51194  0.50365  1.0000
  C  Sn86      1.0  0.38110  0.49166  0.50249  1.0000
  C   C339      1.0  0.40677  0.49976  0.48129  1.0000
  C   C340      1.0  0.40466  0.52767  0.46132  1.0000
  H   H277      1.0  0.37520  0.56927  0.44704  1.0000
  O  Te85      1.0  0.32690  0.50443  0.52461  1.0000
  O  Te86      1.0  0.38359  0.46369  0.52227  1.0000
  H   H278      1.0  0.42464  0.53377  0.44498  1.0000
  Mg  Mg43      1.0  0.34177  0.46371  0.54679  1.0000
  C   C341      1.0  0.88203  0.00259  0.01660  1.0000
  C   C342      1.0  0.90536  0.00717  0.98851  1.0000
  C  Sn87      1.0  0.89959  0.02995  0.96344  1.0000
  C  Sn88      1.0  0.87360  0.05287  0.96663  1.0000
  C   C343      1.0  0.85406  0.05243  0.99484  1.0000
  C   C344      1.0  0.85641  0.02520  0.01978  1.0000
  H   H279      1.0  0.88917  0.98488  0.03590  1.0000
  O  Te87      1.0  0.91948  0.02986  0.93553  1.0000
  O  Te88      1.0  0.86730  0.07591  0.94195  1.0000
  H   H280      1.0  0.84117  0.02502  0.04154  1.0000
  Mg  Mg44      1.0  0.90118  0.06605  0.90858  1.0000
  C   C345      1.0  0.12637  0.45247  0.96119  1.0000
  C   C346      1.0  0.14976  0.45731  0.98598  1.0000
  C  Sn89      1.0  0.14131  0.47700  0.01025  1.0000
  C  Sn90      1.0  0.11252  0.49649  0.00963  1.0000
  C   C347      1.0  0.09290  0.49576  0.98474  1.0000
  C   C348      1.0  0.09797  0.47167  0.96057  1.0000
  H   H281      1.0  0.13028  0.43381  0.94250  1.0000
  O  Te89      1.0  0.16492  0.48152  0.03483  1.0000
  O  Te90      1.0  0.10709  0.52066  0.03359  1.0000
  H   H282      1.0  0.07985  0.46791  0.94139  1.0000
  Mg  Mg45      1.0  0.14644  0.51755  0.06204  1.0000
  C   C349      1.0  0.63825  0.99480  0.51593  1.0000
  C   C350      1.0  0.64981  0.96641  0.50028  1.0000
  C  Sn91      1.0  0.63302  0.95318  0.47321  1.0000
  C  Sn92      1.0  0.60413  0.96873  0.46165  1.0000
  C   C351      1.0  0.59278  0.99714  0.47746  1.0000
  C   C352      1.0  0.60727  0.01016  0.50454  1.0000
  H   H283      1.0  0.64890  0.00489  0.53687  1.0000
  O  Te91      1.0  0.64491  0.92479  0.45786  1.0000
  O  Te92      1.0  0.58688  0.95604  0.43464  1.0000
  H   H284      1.0  0.59832  0.03216  0.51664  1.0000
  Mg  Mg46      1.0  0.61282  0.91685  0.42197  1.0000
  C   C353      1.0  0.62270  0.05268  0.03513  1.0000
  C   C354      1.0  0.64564  0.04692  0.01031  1.0000
  C  Sn93      1.0  0.64360  0.02685  0.98654  1.0000
  C  Sn94      1.0  0.61437  0.00794  0.98769  1.0000
  C   C355      1.0  0.58791  0.00959  0.01261  1.0000
  C   C356      1.0  0.59386  0.03404  0.03628  1.0000
  H   H285      1.0  0.62729  0.07161  0.05343  1.0000
  O  Te93      1.0  0.66678  0.02141  0.96192  1.0000
  O  Te94      1.0  0.61055  0.98342  0.96423  1.0000
  H   H286      1.0  0.57608  0.03850  0.05548  1.0000
  Mg  Mg47      1.0  0.64960  0.98524  0.93551  1.0000
  C   C357      1.0  0.11876  0.49886  0.48644  1.0000
  C   C358      1.0  0.09784  0.50158  0.51349  1.0000
  C  Sn95      1.0  0.10295  0.52620  0.53714  1.0000
  C  Sn96      1.0  0.12952  0.54848  0.53358  1.0000
  C   C359      1.0  0.15029  0.54557  0.50641  1.0000
  C   C360      1.0  0.14496  0.52083  0.48290  1.0000
  H   H287      1.0  0.11462  0.47973  0.46824  1.0000
  O  Te95      1.0  0.08183  0.52857  0.56402  1.0000
  O  Te96      1.0  0.13518  0.57333  0.55684  1.0000
  H   H288      1.0  0.16114  0.51874  0.46195  1.0000
  Mg  Mg48      1.0  0.09964  0.56655  0.58919  1.0000
