data_image0
_chemical_formula_structural       C36H24C7HC4HC4HC4HC4HC4HC4HC4HC4HC4HC4HC4HC4HC4HC4HC4HC4HC4HC4HC4HC4HC4HC4HC4HO24B12Ni4C2Sn2C2HTe2HMgC2Sn2C2HTe2HMgC2Sn2C2HTe2HMgC2Sn2C2HTe2HMgC2Sn2C2HTe2HMgC2Sn2C2HTe2HMg
_chemical_formula_sum              "C159 H60 O24 B12 Ni4 Sn12 Te12 Mg6"
_cell_length_a       32.2325
_cell_length_b       31.9328
_cell_length_c       32.0782
_cell_angle_alpha    89.8895
_cell_angle_beta     89.868
_cell_angle_gamma    90.0761

_symmetry_space_group_name_H-M    'P1'
_space_group_IT_number       1

loop_
  _space_group_symop_operation_xyz
  'x, y, z'

loop_
  _atom_site_type_symbol
  _atom_site_label
  _atom_site_symmetry_multiplicity
  _atom_site_fract_x
  _atom_site_fract_y
  _atom_site_fract_z
  _atom_site_occupancy
  C   C1        1.0  0.56896  0.56955  0.09583  1.0000
  C   C2        1.0  0.53172  0.58539  0.07916  1.0000
  C   C3        1.0  0.58463  0.53202  0.07897  1.0000
  C   C4        1.0  0.51092  0.56443  0.04730  1.0000
  C   C5        1.0  0.56392  0.51127  0.04702  1.0000
  C   C6        1.0  0.52673  0.52707  0.03057  1.0000
  C   C7        1.0  0.57145  0.43245  0.90498  1.0000
  C   C8        1.0  0.53390  0.41647  0.92107  1.0000
  C   C9        1.0  0.58651  0.47029  0.92174  1.0000
  C   C10       1.0  0.51243  0.43733  0.95251  1.0000
  C   C11       1.0  0.56498  0.49110  0.95324  1.0000
  C   C12       1.0  0.52768  0.47487  0.96929  1.0000
  C   C13       1.0  0.09451  0.43258  0.42956  1.0000
  C   C14       1.0  0.07706  0.46984  0.41398  1.0000
  C   C15       1.0  0.07853  0.41620  0.46711  1.0000
  C   C16       1.0  0.04526  0.49005  0.43541  1.0000
  C   C17       1.0  0.04690  0.43659  0.48862  1.0000
  C   C18       1.0  0.02975  0.47385  0.47308  1.0000
  C   C19       1.0  0.09732  0.56575  0.56733  1.0000
  C   C20       1.0  0.07857  0.52960  0.58414  1.0000
  C   C21       1.0  0.08133  0.58189  0.52976  1.0000
  C   C22       1.0  0.04559  0.51007  0.56390  1.0000
  C   C23       1.0  0.04854  0.56221  0.50946  1.0000
  C   C24       1.0  0.03025  0.52584  0.52606  1.0000
  C   C25       1.0  0.90528  0.56847  0.42958  1.0000
  C   C26       1.0  0.91987  0.52913  0.41618  1.0000
  C   C27       1.0  0.92397  0.58645  0.46495  1.0000
  C   C28       1.0  0.95133  0.50854  0.43763  1.0000
  C   C29       1.0  0.95545  0.56573  0.48644  1.0000
  C   C30       1.0  0.96958  0.52641  0.47315  1.0000
  C   C31       1.0  0.90199  0.43236  0.56650  1.0000
  C   C32       1.0  0.91814  0.47031  0.58202  1.0000
  C   C33       1.0  0.92074  0.41516  0.53073  1.0000
  C   C34       1.0  0.95093  0.49058  0.56199  1.0000
  C   C35       1.0  0.95354  0.43549  0.51079  1.0000
  C   C36       1.0  0.96894  0.47369  0.52584  1.0000
  H   H1        1.0  0.48320  0.42461  0.96384  1.0000
  H   H2        1.0  0.48174  0.57688  0.03571  1.0000
  H   H3        1.0  0.96148  0.47785  0.42712  1.0000
  H   H4        1.0  0.96229  0.52024  0.57408  1.0000
  H   H5        1.0  0.03266  0.51914  0.42317  1.0000
  H   H6        1.0  0.03209  0.48180  0.57719  1.0000
  H   H7        1.0  0.57701  0.52051  0.96525  1.0000
  H   H8        1.0  0.57635  0.48205  0.03500  1.0000
  H   H9        1.0  0.96690  0.42193  0.48279  1.0000
  H   H10       1.0  0.96882  0.58004  0.51405  1.0000
  H   H11       1.0  0.03585  0.42381  0.51808  1.0000
  H   H12       1.0  0.03748  0.57469  0.47995  1.0000
  H   H13       1.0  0.61316  0.51884  0.09143  1.0000
  H   H14       1.0  0.61514  0.48377  0.90956  1.0000
  H   H15       1.0  0.09172  0.38753  0.47977  1.0000
  H   H16       1.0  0.09523  0.60983  0.51612  1.0000
  H   H17       1.0  0.91332  0.61680  0.47603  1.0000
  H   H18       1.0  0.90899  0.38586  0.51809  1.0000
  H   H19       1.0  0.51862  0.61412  0.09181  1.0000
  H   H20       1.0  0.52118  0.38767  0.90821  1.0000
  H   H21       1.0  0.08895  0.48333  0.38512  1.0000
  H   H22       1.0  0.09034  0.51649  0.61314  1.0000
  H   H23       1.0  0.90435  0.48431  0.60970  1.0000
  H   H24       1.0  0.90592  0.51440  0.38903  1.0000
  C   C37       1.0  0.50094  0.50045  0.99996  1.0000
  C   C38       1.0  0.99958  0.49999  0.49975  1.0000
  C   C39       1.0  0.49894  0.99985  0.50036  1.0000
  C   C40       1.0  0.63431  0.60255  0.18499  1.0000
  C   C41       1.0  0.66512  0.60030  0.21453  1.0000
  C   C42       1.0  0.69474  0.63757  0.27715  1.0000
  C   C43       1.0  0.66639  0.63345  0.24430  1.0000
  H   H25       1.0  0.68722  0.57466  0.21557  1.0000
  C   C44       1.0  0.36772  0.39727  0.18516  1.0000
  C   C45       1.0  0.33549  0.39921  0.21365  1.0000
  C   C46       1.0  0.30498  0.36500  0.27741  1.0000
  C   C47       1.0  0.33504  0.36819  0.24511  1.0000
  H   H26       1.0  0.31190  0.42342  0.21179  1.0000
  C   C48       1.0  0.36382  0.60143  0.81652  1.0000
  C   C49       1.0  0.33174  0.60033  0.78796  1.0000
  C   C50       1.0  0.30222  0.63588  0.72470  1.0000
  C   C51       1.0  0.33184  0.63197  0.75712  1.0000
  H   H27       1.0  0.30768  0.57652  0.78910  1.0000
  C   C52       1.0  0.63536  0.39799  0.81521  1.0000
  C   C53       1.0  0.66545  0.40025  0.78453  1.0000
  C   C54       1.0  0.69342  0.36486  0.72083  1.0000
  C   C55       1.0  0.66489  0.36818  0.75430  1.0000
  H   H28       1.0  0.68822  0.42535  0.78355  1.0000
  C   C56       1.0  0.18607  0.63091  0.60134  1.0000
  C   C57       1.0  0.21418  0.66343  0.60082  1.0000
  C   C58       1.0  0.27515  0.69497  0.63751  1.0000
  C   C59       1.0  0.24396  0.66408  0.63344  1.0000
  H   H29       1.0  0.21376  0.68738  0.57673  1.0000
  C   C60       1.0  0.18319  0.36738  0.39595  1.0000
  C   C61       1.0  0.21159  0.33527  0.39719  1.0000
  C   C62       1.0  0.27506  0.30582  0.36358  1.0000
  C   C63       1.0  0.24308  0.33588  0.36615  1.0000
  H   H30       1.0  0.21026  0.31073  0.42065  1.0000
  C   C64       1.0  0.81288  0.36680  0.60032  1.0000
  C   C65       1.0  0.78534  0.33380  0.60061  1.0000
  C   C66       1.0  0.72322  0.30320  0.63675  1.0000
  C   C67       1.0  0.75398  0.33448  0.63185  1.0000
  H   H31       1.0  0.78755  0.30838  0.57827  1.0000
  C   C68       1.0  0.81674  0.63380  0.39554  1.0000
  C   C69       1.0  0.78828  0.66615  0.39700  1.0000
  C   C70       1.0  0.72476  0.69599  0.36266  1.0000
  C   C71       1.0  0.75690  0.66582  0.36631  1.0000
  H   H32       1.0  0.79008  0.69047  0.42058  1.0000
  C   C72       1.0  0.60516  0.18006  0.63905  1.0000
  C   C73       1.0  0.60372  0.20997  0.66980  1.0000
  C   C74       1.0  0.63940  0.27490  0.69641  1.0000
  C   C75       1.0  0.63568  0.24100  0.66897  1.0000
  H   H33       1.0  0.57921  0.21079  0.69306  1.0000
  C   C76       1.0  0.39719  0.18779  0.37054  1.0000
  C   C77       1.0  0.39895  0.21697  0.33908  1.0000
  C   C78       1.0  0.36171  0.27894  0.30853  1.0000
  C   C79       1.0  0.36598  0.24662  0.33780  1.0000
  H   H34       1.0  0.42401  0.21766  0.31641  1.0000
  C   C80       1.0  0.60396  0.81575  0.36565  1.0000
  C   C81       1.0  0.60381  0.78750  0.33330  1.0000
  C   C82       1.0  0.63921  0.72490  0.30333  1.0000
  C   C83       1.0  0.63559  0.75674  0.33358  1.0000
  H   H35       1.0  0.58051  0.78823  0.30891  1.0000
  C   C84       1.0  0.39553  0.81568  0.63661  1.0000
  C   C85       1.0  0.39671  0.78596  0.66759  1.0000
  C   C86       1.0  0.35966  0.72259  0.69574  1.0000
  C   C87       1.0  0.36421  0.75559  0.66731  1.0000
  H   H36       1.0  0.42100  0.78526  0.69099  1.0000
  C   C88       1.0  0.60526  0.63573  0.18337  1.0000
  C   C89       1.0  0.60507  0.66831  0.21164  1.0000
  C   C90       1.0  0.63987  0.69713  0.27513  1.0000
  C   C91       1.0  0.63588  0.66717  0.24285  1.0000
  H   H37       1.0  0.58229  0.69329  0.21014  1.0000
  C   C92       1.0  0.39906  0.36626  0.18650  1.0000
  C   C93       1.0  0.39978  0.33524  0.21622  1.0000
  C   C94       1.0  0.36212  0.30751  0.27927  1.0000
  C   C95       1.0  0.36714  0.33596  0.24636  1.0000
  H   H38       1.0  0.42372  0.31134  0.21702  1.0000
  C   C96       1.0  0.60499  0.36593  0.81660  1.0000
  C   C97       1.0  0.60319  0.33410  0.78788  1.0000
  C   C98       1.0  0.63865  0.30508  0.72401  1.0000
  C   C99       1.0  0.63400  0.33472  0.75588  1.0000
  H   H39       1.0  0.57970  0.30973  0.78928  1.0000
  C   C100      1.0  0.39533  0.63237  0.81570  1.0000
  C   C101      1.0  0.39665  0.66385  0.78651  1.0000
  C   C102      1.0  0.35959  0.69320  0.72418  1.0000
  C   C103      1.0  0.36419  0.66399  0.75642  1.0000
  H   H40       1.0  0.42090  0.68748  0.78620  1.0000
  C   C104      1.0  0.63676  0.17915  0.60834  1.0000
  C   C105      1.0  0.66840  0.20837  0.60636  1.0000
  C   C106      1.0  0.69654  0.27391  0.63884  1.0000
  C   C107      1.0  0.66786  0.24020  0.63685  1.0000
  H   H41       1.0  0.69202  0.20737  0.58219  1.0000
  C   C108      1.0  0.36455  0.18622  0.40011  1.0000
  C   C109      1.0  0.33216  0.21459  0.40039  1.0000
  C   C110      1.0  0.30296  0.27780  0.36424  1.0000
  C   C111      1.0  0.33284  0.24557  0.36889  1.0000
  H   H42       1.0  0.30758  0.21328  0.42358  1.0000
  C   C112      1.0  0.36412  0.81666  0.60584  1.0000
  C   C113      1.0  0.33194  0.78803  0.60441  1.0000
  C   C114      1.0  0.30226  0.72386  0.63871  1.0000
  C   C115      1.0  0.33187  0.75664  0.63549  1.0000
  H   H43       1.0  0.30807  0.78947  0.58061  1.0000
  C   C116      1.0  0.63378  0.81473  0.39789  1.0000
  C   C117      1.0  0.66540  0.78578  0.39915  1.0000
  C   C118      1.0  0.69658  0.72382  0.36304  1.0000
  C   C119      1.0  0.66661  0.75598  0.36632  1.0000
  H   H44       1.0  0.68812  0.78524  0.42410  1.0000
  C   C120      1.0  0.18595  0.59958  0.63257  1.0000
  C   C121      1.0  0.21414  0.59894  0.66474  1.0000
  C   C122      1.0  0.27520  0.63536  0.69592  1.0000
  C   C123      1.0  0.24397  0.63170  0.66532  1.0000
  H   H45       1.0  0.21396  0.57464  0.68847  1.0000
  C   C124      1.0  0.18443  0.39945  0.36550  1.0000
  C   C125      1.0  0.21434  0.40127  0.33483  1.0000
  C   C126      1.0  0.27697  0.36561  0.30536  1.0000
  C   C127      1.0  0.24437  0.36873  0.33477  1.0000
  H   H46       1.0  0.21539  0.42637  0.31195  1.0000
  C   C128      1.0  0.81515  0.60126  0.36566  1.0000
  C   C129      1.0  0.78528  0.59962  0.33519  1.0000
  C   C130      1.0  0.72315  0.63727  0.30627  1.0000
  C   C131      1.0  0.75557  0.63271  0.33497  1.0000
  H   H47       1.0  0.78397  0.57464  0.31231  1.0000
  C   C132      1.0  0.81072  0.40013  0.62920  1.0000
  C   C133      1.0  0.78109  0.40206  0.66009  1.0000
  C   C134      1.0  0.72046  0.36533  0.69200  1.0000
  C   C135      1.0  0.75216  0.36853  0.66176  1.0000
  H   H48       1.0  0.77974  0.42775  0.68218  1.0000
  O   O1        1.0  0.62558  0.57465  0.15312  1.0000
  O   O2        1.0  0.37533  0.42378  0.15196  1.0000
  O   O3        1.0  0.37108  0.57440  0.84942  1.0000
  O   O4        1.0  0.62885  0.42533  0.84789  1.0000
  O   O5        1.0  0.15431  0.62288  0.57341  1.0000
  O   O6        1.0  0.15024  0.37460  0.42274  1.0000
  O   O7        1.0  0.84602  0.37359  0.57350  1.0000
  O   O8        1.0  0.84996  0.62706  0.42180  1.0000
  O   O9        1.0  0.57716  0.14799  0.63114  1.0000
  O   O10       1.0  0.42499  0.15593  0.37902  1.0000
  O   O11       1.0  0.57658  0.84827  0.37298  1.0000
  O   O12       1.0  0.42318  0.84812  0.62917  1.0000
  O   O13       1.0  0.57843  0.62919  0.15046  1.0000
  O   O14       1.0  0.42684  0.37316  0.15408  1.0000
  O   O15       1.0  0.57885  0.37310  0.85018  1.0000
  O   O16       1.0  0.42275  0.62497  0.84808  1.0000
  O   O17       1.0  0.62921  0.14654  0.58114  1.0000
  O   O18       1.0  0.37118  0.15299  0.42701  1.0000
  O   O19       1.0  0.37177  0.84954  0.57886  1.0000
  O   O20       1.0  0.62510  0.84637  0.42609  1.0000
  O   O21       1.0  0.15401  0.57163  0.62480  1.0000
  O   O22       1.0  0.15208  0.42705  0.37272  1.0000
  O   O23       1.0  0.84746  0.57350  0.37309  1.0000
  O   O24       1.0  0.84233  0.42832  0.62090  1.0000
  B   B1        1.0  0.59092  0.59110  0.13238  1.0000
  B   B2        1.0  0.86840  0.58958  0.40798  1.0000
  B   B3        1.0  0.58973  0.86679  0.41044  1.0000
  B   B4        1.0  0.41214  0.40894  0.13328  1.0000
  B   B5        1.0  0.13149  0.41150  0.40817  1.0000
  B   B6        1.0  0.40865  0.13459  0.41365  1.0000
  B   B7        1.0  0.40785  0.58887  0.86823  1.0000
  B   B8        1.0  0.13468  0.58647  0.58840  1.0000
  B   B9        1.0  0.40873  0.86823  0.59308  1.0000
  B   B10       1.0  0.59321  0.41029  0.86860  1.0000
  B   B11       1.0  0.86404  0.41148  0.58676  1.0000
  B   B12       1.0  0.59167  0.12842  0.59469  1.0000
  Ni  Ni1       1.0  0.31320  0.68603  0.68791  1.0000
  Ni  Ni2       1.0  0.68387  0.31334  0.68615  1.0000
  Ni  Ni3       1.0  0.68791  0.68483  0.31325  1.0000
  Ni  Ni4       1.0  0.31539  0.31555  0.31524  1.0000
  C   C136      1.0  0.57276  0.05244  0.51317  1.0000
  C   C137      1.0  0.53548  0.03241  0.52323  1.0000
  C  Sn1       1.0  0.51264  0.04498  0.55810  1.0000
  C  Sn2       1.0  0.52749  0.07823  0.58329  1.0000
  C   C138      1.0  0.56481  0.09809  0.57294  1.0000
  C   C139      1.0  0.58742  0.08526  0.53800  1.0000
  H   H49       1.0  0.59025  0.04253  0.48612  1.0000
  O  Te1       1.0  0.47546  0.02462  0.56771  1.0000
  O  Te2       1.0  0.50528  0.09143  0.61830  1.0000
  H   H50       1.0  0.61627  0.10079  0.53020  1.0000
  Mg  Mg1       1.0  0.45632  0.05391  0.61860  1.0000
  C   C140      1.0  0.58206  0.92709  0.47910  1.0000
  C   C141      1.0  0.57128  0.90594  0.44258  1.0000
  C  Sn3       1.0  0.53646  0.91823  0.41979  1.0000
  C  Sn4       1.0  0.51204  0.95234  0.43389  1.0000
  C   C142      1.0  0.52310  0.97332  0.47044  1.0000
  C   C143      1.0  0.55800  0.96075  0.49301  1.0000
  H   H51       1.0  0.60907  0.91739  0.49655  1.0000
  O  Te3       1.0  0.52612  0.89675  0.38339  1.0000
  O  Te4       1.0  0.47709  0.96529  0.41171  1.0000
  H   H52       1.0  0.56635  0.97715  0.52127  1.0000
  Mg  Mg2       1.0  0.47563  0.92612  0.36396  1.0000
  C   C144      1.0  0.42946  0.94184  0.51002  1.0000
  C   C145      1.0  0.46306  0.96634  0.52273  1.0000
  C  Sn5       1.0  0.48254  0.95839  0.56079  1.0000
  C  Sn6       1.0  0.46804  0.92525  0.58653  1.0000
  C   C146      1.0  0.43442  0.90090  0.57352  1.0000
  C   C147      1.0  0.41515  0.90914  0.53538  1.0000
  H   H53       1.0  0.41456  0.94820  0.48050  1.0000
  O  Te5       1.0  0.51606  0.98318  0.57303  1.0000
  O  Te6       1.0  0.48694  0.91661  0.62472  1.0000
  H   H54       1.0  0.38915  0.89014  0.52554  1.0000
  Mg  Mg3       1.0  0.53156  0.95916  0.62779  1.0000
  C   C148      1.0  0.42856  0.48779  0.05388  1.0000
  C   C149      1.0  0.46695  0.47916  0.03549  1.0000
  C  Sn7       1.0  0.48886  0.44313  0.04661  1.0000
  C  Sn8       1.0  0.47195  0.41526  0.07669  1.0000
  C   C150      1.0  0.43350  0.42416  0.09489  1.0000
  C   C151      1.0  0.41184  0.46031  0.08354  1.0000
  H   H55       1.0  0.41178  0.51575  0.04509  1.0000
  O  Te7       1.0  0.52718  0.43499  0.02795  1.0000
  O  Te8       1.0  0.49319  0.37901  0.08837  1.0000
  H   H56       1.0  0.38211  0.46697  0.09776  1.0000
  Mg  Mg4       1.0  0.54434  0.38156  0.05416  1.0000
  C   C152      1.0  0.41289  0.06882  0.47779  1.0000
  C   C153      1.0  0.42569  0.09374  0.44427  1.0000
  C  Sn9       1.0  0.46288  0.08510  0.42357  1.0000
  C  Sn10      1.0  0.48765  0.05086  0.43673  1.0000
  C   C154      1.0  0.47455  0.02610  0.47027  1.0000
  C   C155      1.0  0.43729  0.03502  0.49078  1.0000
  H   H57       1.0  0.38405  0.07571  0.49364  1.0000
  O  Te9       1.0  0.47522  0.11032  0.39016  1.0000
  O  Te10      1.0  0.52495  0.04152  0.41659  1.0000
  H   H58       1.0  0.42737  0.01571  0.51671  1.0000
  Mg  Mg5       1.0  0.52855  0.08503  0.37267  1.0000
  C   C156      1.0  0.48758  0.57324  0.94560  1.0000
  C   C157      1.0  0.47702  0.53708  0.96785  1.0000
  C  Sn11      1.0  0.44188  0.51395  0.95691  1.0000
  C  Sn12      1.0  0.41692  0.52734  0.92304  1.0000
  C   C158      1.0  0.42776  0.56354  0.90097  1.0000
  C   C159      1.0  0.46298  0.58646  0.91219  1.0000
  H   H59       1.0  0.51484  0.59096  0.95427  1.0000
  O  Te11      1.0  0.43177  0.47791  0.97947  1.0000
  O  Te12      1.0  0.38164  0.50480  0.91143  1.0000
  H   H60       1.0  0.47117  0.61444  0.89494  1.0000
  Mg  Mg6       1.0  0.38068  0.45777  0.95174  1.0000
