data_image0
_chemical_formula_structural       C36H24C7HC4HC4HC4HC4HC4HC4HC4HC4HC4HC4HC4HC4HC4HC4HC4HC4HC4HC4HC4HC4HC4HC4HC4HO24B12Ni4SnCSn2CSnTe4Mg2SnCSn2CSnTe4Mg2SnCSn2CSnTe4Mg2SnCSn2CSnTe4Mg2SnCSn2CSnTe4Mg2SnCSn2CSnTe4Mg2
_chemical_formula_sum              "C147 H48 O24 B12 Ni4 Sn24 Te24 Mg12"
_cell_length_a       32.2325
_cell_length_b       31.9328
_cell_length_c       32.0782
_cell_angle_alpha    89.8895
_cell_angle_beta     89.868
_cell_angle_gamma    90.0761

_symmetry_space_group_name_H-M    'P1'
_space_group_IT_number       1

loop_
  _space_group_symop_operation_xyz
  'x, y, z'

loop_
  _atom_site_type_symbol
  _atom_site_label
  _atom_site_symmetry_multiplicity
  _atom_site_fract_x
  _atom_site_fract_y
  _atom_site_fract_z
  _atom_site_occupancy
  C   C1        1.0  0.43356  0.43038  0.09614  1.0000
  C   C2        1.0  0.47062  0.41466  0.07889  1.0000
  C   C3        1.0  0.41757  0.46785  0.07935  1.0000
  C   C4        1.0  0.49105  0.43570  0.04670  1.0000
  C   C5        1.0  0.43809  0.48891  0.04728  1.0000
  C   C6        1.0  0.47525  0.47330  0.03046  1.0000
  C   C7        1.0  0.09732  0.56575  0.56733  1.0000
  C   C8        1.0  0.07857  0.52960  0.58414  1.0000
  C   C9        1.0  0.08133  0.58189  0.52976  1.0000
  C   C10       1.0  0.04559  0.51007  0.56390  1.0000
  C   C11       1.0  0.04854  0.56221  0.50946  1.0000
  C   C12       1.0  0.03025  0.52584  0.52606  1.0000
  C   C13       1.0  0.90528  0.56847  0.42958  1.0000
  C   C14       1.0  0.91987  0.52913  0.41618  1.0000
  C   C15       1.0  0.92397  0.58645  0.46495  1.0000
  C   C16       1.0  0.95133  0.50854  0.43763  1.0000
  C   C17       1.0  0.95545  0.56573  0.48644  1.0000
  C   C18       1.0  0.96958  0.52641  0.47315  1.0000
  C   C19       1.0  0.56873  0.09355  0.57126  1.0000
  C   C20       1.0  0.58533  0.07575  0.53470  1.0000
  C   C21       1.0  0.52927  0.07973  0.58448  1.0000
  C   C22       1.0  0.56382  0.04496  0.51279  1.0000
  C   C23       1.0  0.50775  0.04911  0.56244  1.0000
  C   C24       1.0  0.52495  0.03067  0.52660  1.0000
  C   C25       1.0  0.43074  0.90451  0.57074  1.0000
  C   C26       1.0  0.41670  0.91865  0.53158  1.0000
  C   C27       1.0  0.46636  0.92360  0.58756  1.0000
  C   C28       1.0  0.43760  0.95021  0.51010  1.0000
  C   C29       1.0  0.48711  0.95538  0.56611  1.0000
  C   C30       1.0  0.47306  0.96920  0.52706  1.0000
  C   C31       1.0  0.56786  0.90367  0.43196  1.0000
  C   C32       1.0  0.58222  0.91930  0.47039  1.0000
  C   C33       1.0  0.53187  0.92192  0.41499  1.0000
  C   C34       1.0  0.56125  0.95126  0.49109  1.0000
  C   C35       1.0  0.51099  0.95407  0.43565  1.0000
  C   C36       1.0  0.52529  0.96929  0.47408  1.0000
  H   H1        1.0  0.51983  0.42299  0.03439  1.0000
  H   H2        1.0  0.96148  0.47785  0.42712  1.0000
  H   H3        1.0  0.03209  0.48180  0.57719  1.0000
  H   H4        1.0  0.42659  0.96005  0.47960  1.0000
  H   H5        1.0  0.57253  0.96197  0.52116  1.0000
  H   H6        1.0  0.57722  0.03211  0.48444  1.0000
  H   H7        1.0  0.42538  0.51809  0.03536  1.0000
  H   H8        1.0  0.48290  0.96701  0.42205  1.0000
  H   H9        1.0  0.51468  0.96940  0.57969  1.0000
  H   H10       1.0  0.47700  0.03968  0.57291  1.0000
  H   H11       1.0  0.96882  0.58004  0.51405  1.0000
  H   H12       1.0  0.03748  0.57469  0.47995  1.0000
  H   H13       1.0  0.38898  0.48089  0.09196  1.0000
  H   H14       1.0  0.09523  0.60983  0.51612  1.0000
  H   H15       1.0  0.91332  0.61680  0.47603  1.0000
  H   H16       1.0  0.51522  0.09359  0.61207  1.0000
  H   H17       1.0  0.47809  0.91322  0.61764  1.0000
  H   H18       1.0  0.51990  0.91040  0.38544  1.0000
  H   H19       1.0  0.48380  0.38584  0.09118  1.0000
  H   H20       1.0  0.61531  0.08642  0.52314  1.0000
  H   H21       1.0  0.60989  0.90581  0.48438  1.0000
  H   H22       1.0  0.38946  0.90424  0.51762  1.0000
  H   H23       1.0  0.09034  0.51649  0.61314  1.0000
  H   H24       1.0  0.90592  0.51440  0.38903  1.0000
  C   C37       1.0  0.50094  0.50045  0.99996  1.0000
  C   C38       1.0  0.99958  0.49999  0.49975  1.0000
  C   C39       1.0  0.49894  0.99985  0.50036  1.0000
  C   C40       1.0  0.63431  0.60255  0.18499  1.0000
  C   C41       1.0  0.66512  0.60030  0.21453  1.0000
  C   C42       1.0  0.69474  0.63757  0.27715  1.0000
  C   C43       1.0  0.66639  0.63345  0.24430  1.0000
  H   H25       1.0  0.68722  0.57466  0.21557  1.0000
  C   C44       1.0  0.36772  0.39727  0.18516  1.0000
  C   C45       1.0  0.33549  0.39921  0.21365  1.0000
  C   C46       1.0  0.30498  0.36500  0.27741  1.0000
  C   C47       1.0  0.33504  0.36819  0.24511  1.0000
  H   H26       1.0  0.31190  0.42342  0.21179  1.0000
  C   C48       1.0  0.36382  0.60143  0.81652  1.0000
  C   C49       1.0  0.33174  0.60033  0.78796  1.0000
  C   C50       1.0  0.30222  0.63588  0.72470  1.0000
  C   C51       1.0  0.33184  0.63197  0.75712  1.0000
  H   H27       1.0  0.30768  0.57652  0.78910  1.0000
  C   C52       1.0  0.63536  0.39799  0.81521  1.0000
  C   C53       1.0  0.66545  0.40025  0.78453  1.0000
  C   C54       1.0  0.69342  0.36486  0.72083  1.0000
  C   C55       1.0  0.66489  0.36818  0.75430  1.0000
  H   H28       1.0  0.68822  0.42535  0.78355  1.0000
  C   C56       1.0  0.18607  0.63091  0.60134  1.0000
  C   C57       1.0  0.21418  0.66343  0.60082  1.0000
  C   C58       1.0  0.27515  0.69497  0.63751  1.0000
  C   C59       1.0  0.24396  0.66408  0.63344  1.0000
  H   H29       1.0  0.21376  0.68738  0.57673  1.0000
  C   C60       1.0  0.18319  0.36738  0.39595  1.0000
  C   C61       1.0  0.21159  0.33527  0.39719  1.0000
  C   C62       1.0  0.27506  0.30582  0.36358  1.0000
  C   C63       1.0  0.24308  0.33588  0.36615  1.0000
  H   H30       1.0  0.21026  0.31073  0.42065  1.0000
  C   C64       1.0  0.81288  0.36680  0.60032  1.0000
  C   C65       1.0  0.78534  0.33380  0.60061  1.0000
  C   C66       1.0  0.72322  0.30320  0.63675  1.0000
  C   C67       1.0  0.75398  0.33448  0.63185  1.0000
  H   H31       1.0  0.78755  0.30838  0.57827  1.0000
  C   C68       1.0  0.81674  0.63380  0.39554  1.0000
  C   C69       1.0  0.78828  0.66615  0.39700  1.0000
  C   C70       1.0  0.72476  0.69599  0.36266  1.0000
  C   C71       1.0  0.75690  0.66582  0.36631  1.0000
  H   H32       1.0  0.79008  0.69047  0.42058  1.0000
  C   C72       1.0  0.60516  0.18006  0.63905  1.0000
  C   C73       1.0  0.60372  0.20997  0.66980  1.0000
  C   C74       1.0  0.63940  0.27490  0.69641  1.0000
  C   C75       1.0  0.63568  0.24100  0.66897  1.0000
  H   H33       1.0  0.57921  0.21079  0.69306  1.0000
  C   C76       1.0  0.39719  0.18779  0.37054  1.0000
  C   C77       1.0  0.39895  0.21697  0.33908  1.0000
  C   C78       1.0  0.36171  0.27894  0.30853  1.0000
  C   C79       1.0  0.36598  0.24662  0.33780  1.0000
  H   H34       1.0  0.42401  0.21766  0.31641  1.0000
  C   C80       1.0  0.60396  0.81575  0.36565  1.0000
  C   C81       1.0  0.60381  0.78750  0.33330  1.0000
  C   C82       1.0  0.63921  0.72490  0.30333  1.0000
  C   C83       1.0  0.63559  0.75674  0.33358  1.0000
  H   H35       1.0  0.58051  0.78823  0.30891  1.0000
  C   C84       1.0  0.39553  0.81568  0.63661  1.0000
  C   C85       1.0  0.39671  0.78596  0.66759  1.0000
  C   C86       1.0  0.35966  0.72259  0.69574  1.0000
  C   C87       1.0  0.36421  0.75559  0.66731  1.0000
  H   H36       1.0  0.42100  0.78526  0.69099  1.0000
  C   C88       1.0  0.60526  0.63573  0.18337  1.0000
  C   C89       1.0  0.60507  0.66831  0.21164  1.0000
  C   C90       1.0  0.63987  0.69713  0.27513  1.0000
  C   C91       1.0  0.63588  0.66717  0.24285  1.0000
  H   H37       1.0  0.58229  0.69329  0.21014  1.0000
  C   C92       1.0  0.39906  0.36626  0.18650  1.0000
  C   C93       1.0  0.39978  0.33524  0.21622  1.0000
  C   C94       1.0  0.36212  0.30751  0.27927  1.0000
  C   C95       1.0  0.36714  0.33596  0.24636  1.0000
  H   H38       1.0  0.42372  0.31134  0.21702  1.0000
  C   C96       1.0  0.60499  0.36593  0.81660  1.0000
  C   C97       1.0  0.60319  0.33410  0.78788  1.0000
  C   C98       1.0  0.63865  0.30508  0.72401  1.0000
  C   C99       1.0  0.63400  0.33472  0.75588  1.0000
  H   H39       1.0  0.57970  0.30973  0.78928  1.0000
  C   C100      1.0  0.39533  0.63237  0.81570  1.0000
  C   C101      1.0  0.39665  0.66385  0.78651  1.0000
  C   C102      1.0  0.35959  0.69320  0.72418  1.0000
  C   C103      1.0  0.36419  0.66399  0.75642  1.0000
  H   H40       1.0  0.42090  0.68748  0.78620  1.0000
  C   C104      1.0  0.63676  0.17915  0.60834  1.0000
  C   C105      1.0  0.66840  0.20837  0.60636  1.0000
  C   C106      1.0  0.69654  0.27391  0.63884  1.0000
  C   C107      1.0  0.66786  0.24020  0.63685  1.0000
  H   H41       1.0  0.69202  0.20737  0.58219  1.0000
  C   C108      1.0  0.36455  0.18622  0.40011  1.0000
  C   C109      1.0  0.33216  0.21459  0.40039  1.0000
  C   C110      1.0  0.30296  0.27780  0.36424  1.0000
  C   C111      1.0  0.33284  0.24557  0.36889  1.0000
  H   H42       1.0  0.30758  0.21328  0.42358  1.0000
  C   C112      1.0  0.36412  0.81666  0.60584  1.0000
  C   C113      1.0  0.33194  0.78803  0.60441  1.0000
  C   C114      1.0  0.30226  0.72386  0.63871  1.0000
  C   C115      1.0  0.33187  0.75664  0.63549  1.0000
  H   H43       1.0  0.30807  0.78947  0.58061  1.0000
  C   C116      1.0  0.63378  0.81473  0.39789  1.0000
  C   C117      1.0  0.66540  0.78578  0.39915  1.0000
  C   C118      1.0  0.69658  0.72382  0.36304  1.0000
  C   C119      1.0  0.66661  0.75598  0.36632  1.0000
  H   H44       1.0  0.68812  0.78524  0.42410  1.0000
  C   C120      1.0  0.18595  0.59958  0.63257  1.0000
  C   C121      1.0  0.21414  0.59894  0.66474  1.0000
  C   C122      1.0  0.27520  0.63536  0.69592  1.0000
  C   C123      1.0  0.24397  0.63170  0.66532  1.0000
  H   H45       1.0  0.21396  0.57464  0.68847  1.0000
  C   C124      1.0  0.18443  0.39945  0.36550  1.0000
  C   C125      1.0  0.21434  0.40127  0.33483  1.0000
  C   C126      1.0  0.27697  0.36561  0.30536  1.0000
  C   C127      1.0  0.24437  0.36873  0.33477  1.0000
  H   H46       1.0  0.21539  0.42637  0.31195  1.0000
  C   C128      1.0  0.81515  0.60126  0.36566  1.0000
  C   C129      1.0  0.78528  0.59962  0.33519  1.0000
  C   C130      1.0  0.72315  0.63727  0.30627  1.0000
  C   C131      1.0  0.75557  0.63271  0.33497  1.0000
  H   H47       1.0  0.78397  0.57464  0.31231  1.0000
  C   C132      1.0  0.81072  0.40013  0.62920  1.0000
  C   C133      1.0  0.78109  0.40206  0.66009  1.0000
  C   C134      1.0  0.72046  0.36533  0.69200  1.0000
  C   C135      1.0  0.75216  0.36853  0.66176  1.0000
  H   H48       1.0  0.77974  0.42775  0.68218  1.0000
  O   O1        1.0  0.62558  0.57465  0.15312  1.0000
  O   O2        1.0  0.37533  0.42378  0.15196  1.0000
  O   O3        1.0  0.37108  0.57440  0.84942  1.0000
  O   O4        1.0  0.62885  0.42533  0.84789  1.0000
  O   O5        1.0  0.15431  0.62288  0.57341  1.0000
  O   O6        1.0  0.15024  0.37460  0.42274  1.0000
  O   O7        1.0  0.84602  0.37359  0.57350  1.0000
  O   O8        1.0  0.84996  0.62706  0.42180  1.0000
  O   O9        1.0  0.57716  0.14799  0.63114  1.0000
  O   O10       1.0  0.42499  0.15593  0.37902  1.0000
  O   O11       1.0  0.57658  0.84827  0.37298  1.0000
  O   O12       1.0  0.42318  0.84812  0.62917  1.0000
  O   O13       1.0  0.57843  0.62919  0.15046  1.0000
  O   O14       1.0  0.42684  0.37316  0.15408  1.0000
  O   O15       1.0  0.57885  0.37310  0.85018  1.0000
  O   O16       1.0  0.42275  0.62497  0.84808  1.0000
  O   O17       1.0  0.62921  0.14654  0.58114  1.0000
  O   O18       1.0  0.37118  0.15299  0.42701  1.0000
  O   O19       1.0  0.37177  0.84954  0.57886  1.0000
  O   O20       1.0  0.62510  0.84637  0.42609  1.0000
  O   O21       1.0  0.15401  0.57163  0.62480  1.0000
  O   O22       1.0  0.15208  0.42705  0.37272  1.0000
  O   O23       1.0  0.84746  0.57350  0.37309  1.0000
  O   O24       1.0  0.84233  0.42832  0.62090  1.0000
  B   B1        1.0  0.59092  0.59110  0.13238  1.0000
  B   B2        1.0  0.86840  0.58958  0.40798  1.0000
  B   B3        1.0  0.58973  0.86679  0.41044  1.0000
  B   B4        1.0  0.41214  0.40894  0.13328  1.0000
  B   B5        1.0  0.13149  0.41150  0.40817  1.0000
  B   B6        1.0  0.40865  0.13459  0.41365  1.0000
  B   B7        1.0  0.40785  0.58887  0.86823  1.0000
  B   B8        1.0  0.13468  0.58647  0.58840  1.0000
  B   B9        1.0  0.40873  0.86823  0.59308  1.0000
  B   B10       1.0  0.59321  0.41029  0.86860  1.0000
  B   B11       1.0  0.86404  0.41148  0.58676  1.0000
  B   B12       1.0  0.59167  0.12842  0.59469  1.0000
  Ni  Ni1       1.0  0.31320  0.68603  0.68791  1.0000
  Ni  Ni2       1.0  0.68387  0.31334  0.68615  1.0000
  Ni  Ni3       1.0  0.68791  0.68483  0.31325  1.0000
  Ni  Ni4       1.0  0.31539  0.31555  0.31524  1.0000
  C  Sn1       1.0  0.51973  0.57759  0.04539  1.0000
  C   C136      1.0  0.53022  0.53972  0.02635  1.0000
  C  Sn2       1.0  0.55951  0.51320  0.04453  1.0000
  C  Sn3       1.0  0.57871  0.52477  0.08255  1.0000
  C   C137      1.0  0.56822  0.56263  0.10158  1.0000
  C  Sn4       1.0  0.53893  0.58916  0.08341  1.0000
  O  Te1       1.0  0.49036  0.60361  0.02666  1.0000
  O  Te2       1.0  0.56950  0.47550  0.02491  1.0000
  O  Te3       1.0  0.60810  0.49872  0.10128  1.0000
  O  Te4       1.0  0.52894  0.62684  0.10302  1.0000
  Mg  Mg1       1.0  0.61134  0.45060  0.06260  1.0000
  Mg  Mg2       1.0  0.48709  0.65175  0.06536  1.0000
  C  Sn5       1.0  0.04341  0.48118  0.42232  1.0000
  C   C138      1.0  0.02513  0.46999  0.46029  1.0000
  C  Sn6       1.0  0.04419  0.44070  0.48634  1.0000
  C  Sn7       1.0  0.08233  0.42222  0.47419  1.0000
  C   C139      1.0  0.10059  0.43342  0.43625  1.0000
  C  Sn8       1.0  0.08155  0.46271  0.41017  1.0000
  O  Te5       1.0  0.02381  0.51054  0.39677  1.0000
  O  Te6       1.0  0.02531  0.43000  0.52414  1.0000
  O  Te7       1.0  0.10192  0.39284  0.49978  1.0000
  O  Te8       1.0  0.10041  0.47341  0.37239  1.0000
  Mg  Mg3       1.0  0.06405  0.38848  0.54826  1.0000
  Mg  Mg4       1.0  0.06171  0.51494  0.34827  1.0000
  C  Sn9       1.0  0.93851  0.43535  0.50582  1.0000
  C   C140      1.0  0.95842  0.47246  0.51730  1.0000
  C  Sn10      1.0  0.95297  0.48894  0.55724  1.0000
  C  Sn11      1.0  0.92708  0.46787  0.58633  1.0000
  C   C141      1.0  0.90719  0.43078  0.57484  1.0000
  C  Sn12      1.0  0.91262  0.41428  0.53490  1.0000
  O  Te9       1.0  0.94441  0.41944  0.46572  1.0000
  O  Te10      1.0  0.97319  0.52610  0.56799  1.0000
  O  Te11      1.0  0.92119  0.48381  0.62645  1.0000
  O  Te12      1.0  0.89242  0.37715  0.52415  1.0000
  Mg  Mg5       1.0  0.95540  0.53533  0.62637  1.0000
  Mg  Mg6       1.0  0.91021  0.36787  0.46579  1.0000
  C  Sn13      1.0  0.52129  0.42425  0.95453  1.0000
  C   C142      1.0  0.53125  0.46223  0.97366  1.0000
  C  Sn14      1.0  0.56066  0.48899  0.95578  1.0000
  C  Sn15      1.0  0.58053  0.47756  0.91799  1.0000
  C   C143      1.0  0.57057  0.43960  0.89889  1.0000
  C  Sn16      1.0  0.54116  0.41282  0.91674  1.0000
  O  Te13      1.0  0.49179  0.39798  0.97295  1.0000
  O  Te14      1.0  0.57011  0.52679  0.97549  1.0000
  O  Te15      1.0  0.61006  0.50386  0.89958  1.0000
  O  Te16      1.0  0.53171  0.37504  0.89705  1.0000
  Mg  Mg7       1.0  0.61239  0.55203  0.93825  1.0000
  Mg  Mg8       1.0  0.48942  0.34979  0.93425  1.0000
  C  Sn17      1.0  0.43754  0.50480  0.93789  1.0000
  C   C144      1.0  0.47330  0.51816  0.95855  1.0000
  C  Sn18      1.0  0.48652  0.55972  0.95529  1.0000
  C  Sn19      1.0  0.46350  0.58854  0.93089  1.0000
  C   C145      1.0  0.42776  0.57518  0.91025  1.0000
  C  Sn20      1.0  0.41452  0.53362  0.91349  1.0000
  O  Te17      1.0  0.42491  0.46311  0.94159  1.0000
  O  Te18      1.0  0.52237  0.57234  0.97622  1.0000
  O  Te19      1.0  0.47617  0.63026  0.92720  1.0000
  O  Te20      1.0  0.37869  0.52100  0.89258  1.0000
  Mg  Mg9       1.0  0.52703  0.63243  0.96159  1.0000
  Mg  Mg10      1.0  0.37399  0.46093  0.90721  1.0000
  C  Sn21      1.0  0.49245  0.06463  0.43924  1.0000
  C   C146      1.0  0.48016  0.04181  0.47438  1.0000
  C  Sn22      1.0  0.43910  0.04332  0.48831  1.0000
  C  Sn23      1.0  0.40970  0.06814  0.46665  1.0000
  C   C147      1.0  0.42200  0.09093  0.43152  1.0000
  C  Sn24      1.0  0.46306  0.08944  0.41757  1.0000
  O  Te21      1.0  0.53367  0.06265  0.42587  1.0000
  O  Te22      1.0  0.42754  0.02025  0.52354  1.0000
  O  Te23      1.0  0.36846  0.07010  0.48005  1.0000
  O  Te24      1.0  0.47461  0.11249  0.38237  1.0000
  Mg  Mg11      1.0  0.36776  0.03308  0.52961  1.0000
  Mg  Mg12      1.0  0.53438  0.09966  0.37625  1.0000
