data_image0
_chemical_formula_structural       C7HC4HC4HC4HC4HC4HC4HC4HC4HC4HC4HC4HC4HC4HC4HC4HC4HC4HC4HC4HC4HC4HC4HC4HO24B12Ni4C2Sn2C2HTe2HMgC2Sn2C2HTe2HMgC2Sn2C2HTe2HMgC2Sn2C2HTe2HMgC2Sn2C2HTe2HMgC2Sn2C2HTe2HMgC2Sn2C2HTe2HMgC2Sn2C2HTe2HMgC2Sn2C2HTe2HMgC2Sn2C2HTe2HMgC2Sn2C2HTe2HMgC2Sn2C2HTe2HMg
_chemical_formula_sum              "C147 H48 O24 B12 Ni4 Sn24 Te24 Mg12"
_cell_length_a       32.2325
_cell_length_b       31.9328
_cell_length_c       32.0782
_cell_angle_alpha    89.8895
_cell_angle_beta     89.868
_cell_angle_gamma    90.0761

_symmetry_space_group_name_H-M    'P1'
_space_group_IT_number       1

loop_
  _space_group_symop_operation_xyz
  'x, y, z'

loop_
  _atom_site_type_symbol
  _atom_site_label
  _atom_site_symmetry_multiplicity
  _atom_site_fract_x
  _atom_site_fract_y
  _atom_site_fract_z
  _atom_site_occupancy
  C   C1        1.0  0.50094  0.50045  0.99996  1.0000
  C   C2        1.0  0.99958  0.49999  0.49975  1.0000
  C   C3        1.0  0.49894  0.99985  0.50036  1.0000
  C   C4        1.0  0.63431  0.60255  0.18499  1.0000
  C   C5        1.0  0.66512  0.60030  0.21453  1.0000
  C   C6        1.0  0.69474  0.63757  0.27715  1.0000
  C   C7        1.0  0.66639  0.63345  0.24430  1.0000
  H   H1        1.0  0.68722  0.57466  0.21557  1.0000
  C   C8        1.0  0.36772  0.39727  0.18516  1.0000
  C   C9        1.0  0.33549  0.39921  0.21365  1.0000
  C   C10       1.0  0.30498  0.36500  0.27741  1.0000
  C   C11       1.0  0.33504  0.36819  0.24511  1.0000
  H   H2        1.0  0.31190  0.42342  0.21179  1.0000
  C   C12       1.0  0.36382  0.60143  0.81652  1.0000
  C   C13       1.0  0.33174  0.60033  0.78796  1.0000
  C   C14       1.0  0.30222  0.63588  0.72470  1.0000
  C   C15       1.0  0.33184  0.63197  0.75712  1.0000
  H   H3        1.0  0.30768  0.57652  0.78910  1.0000
  C   C16       1.0  0.63536  0.39799  0.81521  1.0000
  C   C17       1.0  0.66545  0.40025  0.78453  1.0000
  C   C18       1.0  0.69342  0.36486  0.72083  1.0000
  C   C19       1.0  0.66489  0.36818  0.75430  1.0000
  H   H4        1.0  0.68822  0.42535  0.78355  1.0000
  C   C20       1.0  0.18607  0.63091  0.60134  1.0000
  C   C21       1.0  0.21418  0.66343  0.60082  1.0000
  C   C22       1.0  0.27515  0.69497  0.63751  1.0000
  C   C23       1.0  0.24396  0.66408  0.63344  1.0000
  H   H5        1.0  0.21376  0.68738  0.57673  1.0000
  C   C24       1.0  0.18319  0.36738  0.39595  1.0000
  C   C25       1.0  0.21159  0.33527  0.39719  1.0000
  C   C26       1.0  0.27506  0.30582  0.36358  1.0000
  C   C27       1.0  0.24308  0.33588  0.36615  1.0000
  H   H6        1.0  0.21026  0.31073  0.42065  1.0000
  C   C28       1.0  0.81288  0.36680  0.60032  1.0000
  C   C29       1.0  0.78534  0.33380  0.60061  1.0000
  C   C30       1.0  0.72322  0.30320  0.63675  1.0000
  C   C31       1.0  0.75398  0.33448  0.63185  1.0000
  H   H7        1.0  0.78755  0.30838  0.57827  1.0000
  C   C32       1.0  0.81674  0.63380  0.39554  1.0000
  C   C33       1.0  0.78828  0.66615  0.39700  1.0000
  C   C34       1.0  0.72476  0.69599  0.36266  1.0000
  C   C35       1.0  0.75690  0.66582  0.36631  1.0000
  H   H8        1.0  0.79008  0.69047  0.42058  1.0000
  C   C36       1.0  0.60516  0.18006  0.63905  1.0000
  C   C37       1.0  0.60372  0.20997  0.66980  1.0000
  C   C38       1.0  0.63940  0.27490  0.69641  1.0000
  C   C39       1.0  0.63568  0.24100  0.66897  1.0000
  H   H9        1.0  0.57921  0.21079  0.69306  1.0000
  C   C40       1.0  0.39719  0.18779  0.37054  1.0000
  C   C41       1.0  0.39895  0.21697  0.33908  1.0000
  C   C42       1.0  0.36171  0.27894  0.30853  1.0000
  C   C43       1.0  0.36598  0.24662  0.33780  1.0000
  H   H10       1.0  0.42401  0.21766  0.31641  1.0000
  C   C44       1.0  0.60396  0.81575  0.36565  1.0000
  C   C45       1.0  0.60381  0.78750  0.33330  1.0000
  C   C46       1.0  0.63921  0.72490  0.30333  1.0000
  C   C47       1.0  0.63559  0.75674  0.33358  1.0000
  H   H11       1.0  0.58051  0.78823  0.30891  1.0000
  C   C48       1.0  0.39553  0.81568  0.63661  1.0000
  C   C49       1.0  0.39671  0.78596  0.66759  1.0000
  C   C50       1.0  0.35966  0.72259  0.69574  1.0000
  C   C51       1.0  0.36421  0.75559  0.66731  1.0000
  H   H12       1.0  0.42100  0.78526  0.69099  1.0000
  C   C52       1.0  0.60526  0.63573  0.18337  1.0000
  C   C53       1.0  0.60507  0.66831  0.21164  1.0000
  C   C54       1.0  0.63987  0.69713  0.27513  1.0000
  C   C55       1.0  0.63588  0.66717  0.24285  1.0000
  H   H13       1.0  0.58229  0.69329  0.21014  1.0000
  C   C56       1.0  0.39906  0.36626  0.18650  1.0000
  C   C57       1.0  0.39978  0.33524  0.21622  1.0000
  C   C58       1.0  0.36212  0.30751  0.27927  1.0000
  C   C59       1.0  0.36714  0.33596  0.24636  1.0000
  H   H14       1.0  0.42372  0.31134  0.21702  1.0000
  C   C60       1.0  0.60499  0.36593  0.81660  1.0000
  C   C61       1.0  0.60319  0.33410  0.78788  1.0000
  C   C62       1.0  0.63865  0.30508  0.72401  1.0000
  C   C63       1.0  0.63400  0.33472  0.75588  1.0000
  H   H15       1.0  0.57970  0.30973  0.78928  1.0000
  C   C64       1.0  0.39533  0.63237  0.81570  1.0000
  C   C65       1.0  0.39665  0.66385  0.78651  1.0000
  C   C66       1.0  0.35959  0.69320  0.72418  1.0000
  C   C67       1.0  0.36419  0.66399  0.75642  1.0000
  H   H16       1.0  0.42090  0.68748  0.78620  1.0000
  C   C68       1.0  0.63676  0.17915  0.60834  1.0000
  C   C69       1.0  0.66840  0.20837  0.60636  1.0000
  C   C70       1.0  0.69654  0.27391  0.63884  1.0000
  C   C71       1.0  0.66786  0.24020  0.63685  1.0000
  H   H17       1.0  0.69202  0.20737  0.58219  1.0000
  C   C72       1.0  0.36455  0.18622  0.40011  1.0000
  C   C73       1.0  0.33216  0.21459  0.40039  1.0000
  C   C74       1.0  0.30296  0.27780  0.36424  1.0000
  C   C75       1.0  0.33284  0.24557  0.36889  1.0000
  H   H18       1.0  0.30758  0.21328  0.42358  1.0000
  C   C76       1.0  0.36412  0.81666  0.60584  1.0000
  C   C77       1.0  0.33194  0.78803  0.60441  1.0000
  C   C78       1.0  0.30226  0.72386  0.63871  1.0000
  C   C79       1.0  0.33187  0.75664  0.63549  1.0000
  H   H19       1.0  0.30807  0.78947  0.58061  1.0000
  C   C80       1.0  0.63378  0.81473  0.39789  1.0000
  C   C81       1.0  0.66540  0.78578  0.39915  1.0000
  C   C82       1.0  0.69658  0.72382  0.36304  1.0000
  C   C83       1.0  0.66661  0.75598  0.36632  1.0000
  H   H20       1.0  0.68812  0.78524  0.42410  1.0000
  C   C84       1.0  0.18595  0.59958  0.63257  1.0000
  C   C85       1.0  0.21414  0.59894  0.66474  1.0000
  C   C86       1.0  0.27520  0.63536  0.69592  1.0000
  C   C87       1.0  0.24397  0.63170  0.66532  1.0000
  H   H21       1.0  0.21396  0.57464  0.68847  1.0000
  C   C88       1.0  0.18443  0.39945  0.36550  1.0000
  C   C89       1.0  0.21434  0.40127  0.33483  1.0000
  C   C90       1.0  0.27697  0.36561  0.30536  1.0000
  C   C91       1.0  0.24437  0.36873  0.33477  1.0000
  H   H22       1.0  0.21539  0.42637  0.31195  1.0000
  C   C92       1.0  0.81515  0.60126  0.36566  1.0000
  C   C93       1.0  0.78528  0.59962  0.33519  1.0000
  C   C94       1.0  0.72315  0.63727  0.30627  1.0000
  C   C95       1.0  0.75557  0.63271  0.33497  1.0000
  H   H23       1.0  0.78397  0.57464  0.31231  1.0000
  C   C96       1.0  0.81072  0.40013  0.62920  1.0000
  C   C97       1.0  0.78109  0.40206  0.66009  1.0000
  C   C98       1.0  0.72046  0.36533  0.69200  1.0000
  C   C99       1.0  0.75216  0.36853  0.66176  1.0000
  H   H24       1.0  0.77974  0.42775  0.68218  1.0000
  O   O1        1.0  0.62558  0.57465  0.15312  1.0000
  O   O2        1.0  0.37533  0.42378  0.15196  1.0000
  O   O3        1.0  0.37108  0.57440  0.84942  1.0000
  O   O4        1.0  0.62885  0.42533  0.84789  1.0000
  O   O5        1.0  0.15431  0.62288  0.57341  1.0000
  O   O6        1.0  0.15024  0.37460  0.42274  1.0000
  O   O7        1.0  0.84602  0.37359  0.57350  1.0000
  O   O8        1.0  0.84996  0.62706  0.42180  1.0000
  O   O9        1.0  0.57716  0.14799  0.63114  1.0000
  O   O10       1.0  0.42499  0.15593  0.37902  1.0000
  O   O11       1.0  0.57658  0.84827  0.37298  1.0000
  O   O12       1.0  0.42318  0.84812  0.62917  1.0000
  O   O13       1.0  0.57843  0.62919  0.15046  1.0000
  O   O14       1.0  0.42684  0.37316  0.15408  1.0000
  O   O15       1.0  0.57885  0.37310  0.85018  1.0000
  O   O16       1.0  0.42275  0.62497  0.84808  1.0000
  O   O17       1.0  0.62921  0.14654  0.58114  1.0000
  O   O18       1.0  0.37118  0.15299  0.42701  1.0000
  O   O19       1.0  0.37177  0.84954  0.57886  1.0000
  O   O20       1.0  0.62510  0.84637  0.42609  1.0000
  O   O21       1.0  0.15401  0.57163  0.62480  1.0000
  O   O22       1.0  0.15208  0.42705  0.37272  1.0000
  O   O23       1.0  0.84746  0.57350  0.37309  1.0000
  O   O24       1.0  0.84233  0.42832  0.62090  1.0000
  B   B1        1.0  0.59092  0.59110  0.13238  1.0000
  B   B2        1.0  0.86840  0.58958  0.40798  1.0000
  B   B3        1.0  0.58973  0.86679  0.41044  1.0000
  B   B4        1.0  0.41214  0.40894  0.13328  1.0000
  B   B5        1.0  0.13149  0.41150  0.40817  1.0000
  B   B6        1.0  0.40865  0.13459  0.41365  1.0000
  B   B7        1.0  0.40785  0.58887  0.86823  1.0000
  B   B8        1.0  0.13468  0.58647  0.58840  1.0000
  B   B9        1.0  0.40873  0.86823  0.59308  1.0000
  B   B10       1.0  0.59321  0.41029  0.86860  1.0000
  B   B11       1.0  0.86404  0.41148  0.58676  1.0000
  B   B12       1.0  0.59167  0.12842  0.59469  1.0000
  Ni  Ni1       1.0  0.31320  0.68603  0.68791  1.0000
  Ni  Ni2       1.0  0.68387  0.31334  0.68615  1.0000
  Ni  Ni3       1.0  0.68791  0.68483  0.31325  1.0000
  Ni  Ni4       1.0  0.31539  0.31555  0.31524  1.0000
  C   C100      1.0  0.49122  0.42721  0.05476  1.0000
  C   C101      1.0  0.47889  0.46261  0.03233  1.0000
  C  Sn1       1.0  0.44278  0.48406  0.04344  1.0000
  C  Sn2       1.0  0.41864  0.46973  0.07767  1.0000
  C   C102      1.0  0.43126  0.43430  0.09993  1.0000
  C   C103      1.0  0.46744  0.41307  0.08853  1.0000
  H   H25       1.0  0.51923  0.41079  0.04596  1.0000
  O  Te1       1.0  0.43090  0.51936  0.02069  1.0000
  O  Te2       1.0  0.38243  0.49059  0.08946  1.0000
  H   H26       1.0  0.47700  0.38567  0.10592  1.0000
  Mg  Mg1       1.0  0.37908  0.53717  0.04878  1.0000
  C   C104      1.0  0.51086  0.57294  0.05531  1.0000
  C   C105      1.0  0.52286  0.53747  0.03288  1.0000
  C  Sn3       1.0  0.55906  0.51598  0.04352  1.0000
  C  Sn4       1.0  0.58363  0.53032  0.07726  1.0000
  C   C106      1.0  0.57134  0.56581  0.09952  1.0000
  C   C107      1.0  0.53506  0.58710  0.08861  1.0000
  H   H27       1.0  0.48278  0.58940  0.04689  1.0000
  O  Te3       1.0  0.57060  0.48061  0.02077  1.0000
  O  Te4       1.0  0.61994  0.50942  0.08856  1.0000
  H   H28       1.0  0.52577  0.61454  0.10600  1.0000
  Mg  Mg2       1.0  0.62272  0.46275  0.04810  1.0000
  C   C108      1.0  0.52531  0.41632  0.92895  1.0000
  C   C109      1.0  0.56083  0.42875  0.90711  1.0000
  C  Sn5       1.0  0.58176  0.46540  0.91820  1.0000
  C  Sn6       1.0  0.56679  0.48999  0.95180  1.0000
  C   C110      1.0  0.53125  0.47728  0.97347  1.0000
  C   C111      1.0  0.51054  0.44056  0.96210  1.0000
  H   H29       1.0  0.50930  0.38790  0.92018  1.0000
  O  Te5       1.0  0.61719  0.47736  0.89604  1.0000
  O  Te6       1.0  0.58712  0.52676  0.96354  1.0000
  H   H30       1.0  0.48305  0.43093  0.97904  1.0000
  Mg  Mg3       1.0  0.63413  0.53001  0.92381  1.0000
  C   C112      1.0  0.48758  0.57324  0.94560  1.0000
  C   C113      1.0  0.47702  0.53708  0.96785  1.0000
  C  Sn7       1.0  0.44188  0.51395  0.95691  1.0000
  C  Sn8       1.0  0.41692  0.52734  0.92304  1.0000
  C   C114      1.0  0.42776  0.56354  0.90097  1.0000
  C   C115      1.0  0.46298  0.58646  0.91219  1.0000
  H   H31       1.0  0.51484  0.59096  0.95427  1.0000
  O  Te7       1.0  0.43177  0.47791  0.97947  1.0000
  O  Te8       1.0  0.38164  0.50480  0.91143  1.0000
  H   H32       1.0  0.47117  0.61444  0.89494  1.0000
  Mg  Mg4       1.0  0.38068  0.45777  0.95174  1.0000
  C   C116      1.0  0.05347  0.42701  0.48740  1.0000
  C   C117      1.0  0.03494  0.46566  0.47908  1.0000
  C  Sn9       1.0  0.04530  0.48789  0.44296  1.0000
  C  Sn10      1.0  0.07477  0.47102  0.41470  1.0000
  C   C118      1.0  0.09311  0.43231  0.42329  1.0000
  C   C119      1.0  0.08252  0.41034  0.45953  1.0000
  H   H33       1.0  0.04526  0.40999  0.51542  1.0000
  O  Te9       1.0  0.02651  0.52647  0.43514  1.0000
  O  Te10      1.0  0.08568  0.49257  0.37837  1.0000
  H   H34       1.0  0.09685  0.38040  0.46595  1.0000
  Mg  Mg5       1.0  0.05158  0.54400  0.38144  1.0000
  C   C120      1.0  0.07485  0.58093  0.52014  1.0000
  C   C121      1.0  0.09214  0.57211  0.55909  1.0000
  C  Sn11      1.0  0.07893  0.53715  0.58178  1.0000
  C  Sn12      1.0  0.04783  0.51057  0.56510  1.0000
  C   C122      1.0  0.03075  0.51965  0.52609  1.0000
  C   C123      1.0  0.04419  0.55472  0.50365  1.0000
  H   H35       1.0  0.08526  0.60805  0.50276  1.0000
  O  Te11      1.0  0.09652  0.52880  0.62065  1.0000
  O  Te12      1.0  0.03407  0.47541  0.58711  1.0000
  H   H36       1.0  0.03081  0.56153  0.47349  1.0000
  Mg  Mg6       1.0  0.06748  0.47717  0.63880  1.0000
  C   C124      1.0  0.94938  0.57558  0.48480  1.0000
  C   C125      1.0  0.96528  0.53537  0.47861  1.0000
  C  Sn13      1.0  0.95190  0.51126  0.44491  1.0000
  C  Sn14      1.0  0.92205  0.52780  0.41694  1.0000
  C   C126      1.0  0.90635  0.56806  0.42339  1.0000
  C   C127      1.0  0.91994  0.59192  0.45722  1.0000
  H   H37       1.0  0.95991  0.59405  0.51097  1.0000
  O  Te13      1.0  0.96810  0.47114  0.43919  1.0000
  O  Te14      1.0  0.90814  0.50438  0.38300  1.0000
  H   H38       1.0  0.90764  0.62306  0.46199  1.0000
  Mg  Mg7       1.0  0.93943  0.45132  0.38835  1.0000
  C   C128      1.0  0.94699  0.42585  0.51186  1.0000
  C   C129      1.0  0.96456  0.46498  0.52020  1.0000
  C  Sn15      1.0  0.95155  0.48805  0.55479  1.0000
  C  Sn16      1.0  0.92037  0.47156  0.58148  1.0000
  C   C130      1.0  0.90301  0.43238  0.57290  1.0000
  C   C131      1.0  0.91625  0.40956  0.53819  1.0000
  H   H39       1.0  0.95725  0.40818  0.48502  1.0000
  O  Te15      1.0  0.96941  0.52709  0.56265  1.0000
  O  Te16      1.0  0.90680  0.49396  0.61628  1.0000
  H   H40       1.0  0.90266  0.37926  0.53176  1.0000
  Mg  Mg8       1.0  0.94056  0.54576  0.61392  1.0000
  C   C132      1.0  0.47756  0.07535  0.41956  1.0000
  C   C133      1.0  0.43823  0.09177  0.42780  1.0000
  C  Sn17      1.0  0.41552  0.07783  0.46230  1.0000
  C  Sn18      1.0  0.43260  0.04689  0.48900  1.0000
  C   C134      1.0  0.47199  0.03069  0.48051  1.0000
  C   C135      1.0  0.49444  0.04485  0.44589  1.0000
  H   H41       1.0  0.49494  0.08632  0.39279  1.0000
  O  Te17      1.0  0.37626  0.09456  0.47007  1.0000
  O  Te18      1.0  0.41059  0.03242  0.52371  1.0000
  H   H42       1.0  0.52490  0.03215  0.43954  1.0000
  Mg  Mg9       1.0  0.35829  0.06477  0.52124  1.0000
  C   C136      1.0  0.58541  0.06760  0.52632  1.0000
  C   C137      1.0  0.57264  0.09131  0.56059  1.0000
  C  Sn19      1.0  0.53448  0.08323  0.57974  1.0000
  C  Sn20      1.0  0.50870  0.05078  0.56423  1.0000
  C   C138      1.0  0.52178  0.02722  0.52995  1.0000
  C   C139      1.0  0.56002  0.03558  0.51102  1.0000
  H   H43       1.0  0.61501  0.07406  0.51169  1.0000
  O  Te19      1.0  0.52218  0.10722  0.61393  1.0000
  O  Te20      1.0  0.47042  0.04202  0.58278  1.0000
  H   H44       1.0  0.56991  0.01720  0.48450  1.0000
  Mg  Mg10      1.0  0.46729  0.08337  0.62860  1.0000
  C   C140      1.0  0.47571  0.93052  0.58669  1.0000
  C   C141      1.0  0.43864  0.91018  0.57669  1.0000
  C  Sn21      1.0  0.41877  0.91861  0.53894  1.0000
  C  Sn22      1.0  0.43643  0.94794  0.51073  1.0000
  C   C142      1.0  0.47354  0.96810  0.52101  1.0000
  C   C143      1.0  0.49316  0.95944  0.55888  1.0000
  H   H45       1.0  0.49090  0.92381  0.61598  1.0000
  O  Te21      1.0  0.38175  0.89802  0.52944  1.0000
  O  Te22      1.0  0.41724  0.95694  0.47277  1.0000
  H   H46       1.0  0.52187  0.97517  0.56660  1.0000
  Mg  Mg11      1.0  0.36725  0.92085  0.47390  1.0000
  C   C144      1.0  0.56951  0.94303  0.49132  1.0000
  C   C145      1.0  0.53539  0.96659  0.47831  1.0000
  C  Sn23      1.0  0.51552  0.95722  0.44080  1.0000
  C  Sn24      1.0  0.53016  0.92363  0.41591  1.0000
  C   C146      1.0  0.56431  0.90024  0.42922  1.0000
  C   C147      1.0  0.58396  0.90989  0.46680  1.0000
  H   H47       1.0  0.58471  0.95048  0.52041  1.0000
  O  Te23      1.0  0.48147  0.98108  0.42826  1.0000
  O  Te24      1.0  0.51088  0.91359  0.37829  1.0000
  H   H48       1.0  0.61037  0.89163  0.47688  1.0000
  Mg  Mg12      1.0  0.46560  0.95526  0.37450  1.0000
