data_image0
_chemical_formula_structural       C24H3C12N6C18N6C18H17O6H8O6H20C30H4C12N6C15N6C15H20O6H6O6H18C2Sn2C2HTe2HMgC2Sn2C2HTe2HMgC2Sn2C2HTe2HMgC2Sn2C2HTe2HMgC2Sn2C2HTe2HMgC2Sn2C2HTe2HMgC2Sn2C2HTe2HMgC2Sn2C2HTe2HMgC2Sn2C2HTe2HMgC2Sn2C2HTe2HMgC2Sn2C2HTe2HMgC2Sn2C2HTe2HMgC2Sn2C2HTe2HMgC2Sn2C2HTe2HMgC2Sn2C2HTe2HMgC2Sn2C2HTe2HMgC2Sn2C2HTe2HMgC2Sn2C2HTe2HMg
_chemical_formula_sum              "C216 H132 N24 O24 Sn36 Te36 Mg18"
_cell_length_a       39.0566
_cell_length_b       38.8034
_cell_length_c       9.64206
_cell_angle_alpha    101.372
_cell_angle_beta     92.469
_cell_angle_gamma    120.36

_symmetry_space_group_name_H-M    'P1'
_space_group_IT_number       1

loop_
  _space_group_symop_operation_xyz
  'x, y, z'

loop_
  _atom_site_type_symbol
  _atom_site_label
  _atom_site_symmetry_multiplicity
  _atom_site_fract_x
  _atom_site_fract_y
  _atom_site_fract_z
  _atom_site_occupancy
  C   C1        1.0  0.48889  0.48505  0.26601  1.0000
  C   C2        1.0  0.52382  0.00423  0.28105  1.0000
  C   C3        1.0  0.00629  0.52003  0.29736  1.0000
  C   C4        1.0  0.52531  0.52174  0.28524  1.0000
  C   C5        1.0  0.48779  0.00311  0.28120  1.0000
  C   C6        1.0  0.00811  0.48489  0.28123  1.0000
  C   C7        1.0  0.44967  0.48261  0.26160  1.0000
  C   C8        1.0  0.04265  0.56131  0.30841  1.0000
  C   C9        1.0  0.97208  0.44462  0.28314  1.0000
  C   C10       1.0  0.41453  0.44797  0.17446  1.0000
  C   C11       1.0  0.04181  0.58483  0.21608  1.0000
  C   C12       1.0  0.95831  0.40936  0.16953  1.0000
  C   C13       1.0  0.37754  0.44542  0.16312  1.0000
  C   C14       1.0  0.07508  0.62286  0.21501  1.0000
  C   C15       1.0  0.92227  0.37269  0.16323  1.0000
  C   C16       1.0  0.37469  0.47811  0.24219  1.0000
  C   C17       1.0  0.11106  0.63848  0.30884  1.0000
  C   C18       1.0  0.89910  0.37040  0.27246  1.0000
  C   C19       1.0  0.40906  0.51238  0.33335  1.0000
  C   C20       1.0  0.11191  0.61623  0.40648  1.0000
  C   C21       1.0  0.91377  0.40470  0.39059  1.0000
  C   C22       1.0  0.44555  0.51441  0.34207  1.0000
  C   C23       1.0  0.07827  0.57838  0.40645  1.0000
  C   C24       1.0  0.94991  0.44100  0.39574  1.0000
  H   H1        1.0  0.47169  0.54159  0.41071  1.0000
  H   H2        1.0  0.07977  0.56185  0.48304  1.0000
  H   H3        1.0  0.96115  0.46782  0.48595  1.0000
  C   C25       1.0  0.44851  0.96420  0.26765  1.0000
  C   C26       1.0  0.04493  0.48370  0.26223  1.0000
  C   C27       1.0  0.41898  0.96430  0.34622  1.0000
  C   C28       1.0  0.05094  0.45611  0.31995  1.0000
  C   C29       1.0  0.38167  0.92859  0.33319  1.0000
  C   C30       1.0  0.08569  0.45488  0.31131  1.0000
  C   C31       1.0  0.37215  0.89127  0.23834  1.0000
  C   C32       1.0  0.11578  0.48111  0.24344  1.0000
  C   C33       1.0  0.40082  0.89057  0.15645  1.0000
  C   C34       1.0  0.10981  0.50770  0.18028  1.0000
  C   C35       1.0  0.43816  0.92657  0.17243  1.0000
  C   C36       1.0  0.07474  0.50851  0.18904  1.0000
  N   N1        1.0  0.33917  0.47914  0.23296  1.0000
  N   N2        1.0  0.52619  0.85959  0.31132  1.0000
  N   N3        1.0  0.14717  0.67481  0.30608  1.0000
  N   N4        1.0  0.67540  0.52918  0.32766  1.0000
  N   N5        1.0  0.48294  0.14621  0.24815  1.0000
  N   N6        1.0  0.86128  0.33459  0.26881  1.0000
  C   C37       1.0  0.30003  0.44703  0.17708  1.0000
  C   C38       1.0  0.52885  0.83393  0.19881  1.0000
  C   C39       1.0  0.15418  0.69977  0.21325  1.0000
  C   C40       1.0  0.70065  0.53638  0.22977  1.0000
  C   C41       1.0  0.45241  0.14903  0.18308  1.0000
  C   C42       1.0  0.83388  0.30784  0.14829  1.0000
  C   C43       1.0  0.52168  0.79405  0.22366  1.0000
  C   C44       1.0  0.19765  0.72996  0.21179  1.0000
  C   C45       1.0  0.46401  0.19168  0.17586  1.0000
  C   C46       1.0  0.79388  0.27544  0.17259  1.0000
  C   C47       1.0  0.54288  0.77728  0.15497  1.0000
  C   C48       1.0  0.20607  0.76372  0.15594  1.0000
  C   C49       1.0  0.43589  0.20342  0.20312  1.0000
  C   C50       1.0  0.77487  0.23586  0.07895  1.0000
  C   C51       1.0  0.49309  0.77189  0.30524  1.0000
  C   C52       1.0  0.22934  0.72453  0.25159  1.0000
  C   C53       1.0  0.49992  0.21849  0.13243  1.0000
  C   C54       1.0  0.77376  0.28433  0.27781  1.0000
  N   N7        1.0  0.48067  0.33165  0.22792  1.0000
  N   N8        1.0  0.66924  0.14654  0.22480  1.0000
  N   N9        1.0  0.86373  0.52813  0.29697  1.0000
  N   N10       1.0  0.53175  0.67201  0.27872  1.0000
  N   N11       1.0  0.33363  0.85624  0.22884  1.0000
  N   N12       1.0  0.15122  0.47950  0.24710  1.0000
  C   C55       1.0  0.48705  0.30822  0.11861  1.0000
  C   C56       1.0  0.67369  0.18289  0.20333  1.0000
  C   C57       1.0  0.82385  0.49648  0.27740  1.0000
  C   C58       1.0  0.49831  0.67582  0.26510  1.0000
  C   C59       1.0  0.31932  0.81514  0.16463  1.0000
  C   C60       1.0  0.17696  0.48824  0.15075  1.0000
  C   C61       1.0  0.47939  0.26823  0.14354  1.0000
  C   C62       1.0  0.71619  0.21451  0.19623  1.0000
  C   C63       1.0  0.50776  0.71745  0.25214  1.0000
  C   C64       1.0  0.27692  0.78648  0.18338  1.0000
  C   C65       1.0  0.50699  0.25604  0.11208  1.0000
  C   C66       1.0  0.73474  0.25437  0.28724  1.0000
  C   C67       1.0  0.48565  0.73356  0.31704  1.0000
  C   C68       1.0  0.26857  0.75227  0.23587  1.0000
  C   C69       1.0  0.44407  0.24193  0.19113  1.0000
  C   C70       1.0  0.73675  0.20529  0.09358  1.0000
  C   C71       1.0  0.53660  0.73973  0.17164  1.0000
  C   C72       1.0  0.24540  0.79211  0.14391  1.0000
  H   H4        1.0  0.41624  0.42238  0.11269  1.0000
  H   H5        1.0  0.01425  0.57232  0.14118  1.0000
  H   H6        1.0  0.97532  0.41115  0.08192  1.0000
  H   H7        1.0  0.35104  0.41868  0.09377  1.0000
  H   H8        1.0  0.07401  0.64005  0.14071  1.0000
  H   H9        1.0  0.91155  0.34613  0.07288  1.0000
  H   H10       1.0  0.40716  0.53770  0.39704  1.0000
  H   H11       1.0  0.13926  0.62881  0.48288  1.0000
  H   H12       1.0  0.89649  0.40269  0.47744  1.0000
  H   H13       1.0  0.42573  0.99303  0.41881  1.0000
  H   H14       1.0  0.02841  0.43618  0.37591  1.0000
  H   H15       1.0  0.35980  0.92952  0.39768  1.0000
  H   H16       1.0  0.09041  0.43448  0.36110  1.0000
  H   H17       1.0  0.39352  0.86199  0.08197  1.0000
  H   H18       1.0  0.13243  0.52718  0.12402  1.0000
  H   H19       1.0  0.46009  0.92541  0.10946  1.0000
  H   H20       1.0  0.07046  0.52897  0.13825  1.0000
  O   O1        1.0  0.29000  0.41089  0.12613  1.0000
  O   O2        1.0  0.53633  0.84193  0.08051  1.0000
  O   O3        1.0  0.12726  0.69732  0.13180  1.0000
  O   O4        1.0  0.69667  0.54744  0.11974  1.0000
  O   O5        1.0  0.41804  0.11942  0.13347  1.0000
  O   O6        1.0  0.84026  0.30934  0.02325  1.0000
  H   H21       1.0  0.56389  0.79399  0.08803  1.0000
  H   H22       1.0  0.18096  0.76656  0.12083  1.0000
  H   H23       1.0  0.40777  0.18187  0.23306  1.0000
  H   H24       1.0  0.79029  0.22967  0.99523  1.0000
  H   H25       1.0  0.47608  0.78421  0.35783  1.0000
  H   H26       1.0  0.22358  0.69791  0.29067  1.0000
  H   H27       1.0  0.52175  0.20941  0.11008  1.0000
  H   H28       1.0  0.78821  0.31511  0.34966  1.0000
  O   O7        1.0  0.49769  0.31803  0.00537  1.0000
  O   O8        1.0  0.64588  0.18896  0.18874  1.0000
  O   O9        1.0  0.81266  0.45980  0.26102  1.0000
  O   O10       1.0  0.46375  0.64759  0.26319  1.0000
  O   O11       1.0  0.33861  0.80237  0.09779  1.0000
  O   O12       1.0  0.17368  0.50168  0.04637  1.0000
  H   H29       1.0  0.53383  0.27630  0.07241  1.0000
  H   H30       1.0  0.71854  0.26153  0.36555  1.0000
  H   H31       1.0  0.46295  0.71576  0.37728  1.0000
  H   H32       1.0  0.29312  0.74790  0.26426  1.0000
  H   H33       1.0  0.42244  0.25116  0.21467  1.0000
  H   H34       1.0  0.72214  0.17435  0.02260  1.0000
  H   H35       1.0  0.55298  0.72676  0.11766  1.0000
  H   H36       1.0  0.25147  0.81802  0.09963  1.0000
  H   H37       1.0  0.69524  0.14842  0.25926  1.0000
  H   H38       1.0  0.85419  0.32779  0.36564  1.0000
  H   H39       1.0  0.86906  0.55716  0.33110  1.0000
  H   H40       1.0  0.68421  0.52641  0.42520  1.0000
  H   H41       1.0  0.47705  0.32275  0.32266  1.0000
  H   H42       1.0  0.34244  0.50650  0.28333  1.0000
  H   H43       1.0  0.16011  0.47624  0.34346  1.0000
  H   H44       1.0  0.17105  0.68319  0.38044  1.0000
  H   H45       1.0  0.31549  0.86118  0.29166  1.0000
  H   H46       1.0  0.52436  0.85227  0.40897  1.0000
  H   H47       1.0  0.55910  0.69862  0.30679  1.0000
  H   H48       1.0  0.50837  0.17344  0.29835  1.0000
  C   C73       1.0  0.48187  0.48370  0.76685  1.0000
  C   C74       1.0  0.52157  0.00479  0.78148  1.0000
  C   C75       1.0  0.00077  0.52153  0.79000  1.0000
  C   C76       1.0  0.51793  0.52053  0.78257  1.0000
  C   C77       1.0  0.48584  0.00431  0.77911  1.0000
  C   C78       1.0  0.00133  0.48584  0.78093  1.0000
  C   C79       1.0  0.44225  0.48052  0.76489  1.0000
  C   C80       1.0  0.52449  0.96912  0.79753  1.0000
  C   C81       1.0  0.55755  0.52395  0.80161  1.0000
  C   C82       1.0  0.48377  0.04179  0.78680  1.0000
  C   C83       1.0  0.40733  0.44648  0.67443  1.0000
  C   C84       1.0  0.55024  0.95961  0.72406  1.0000
  C   C85       1.0  0.58768  0.54734  0.72684  1.0000
  C   C86       1.0  0.45114  0.03877  0.70514  1.0000
  C   C87       1.0  0.37013  0.44360  0.66607  1.0000
  C   C88       1.0  0.55173  0.92481  0.72944  1.0000
  C   C89       1.0  0.62455  0.54976  0.73607  1.0000
  C   C90       1.0  0.44873  0.07306  0.69987  1.0000
  C   C91       1.0  0.36685  0.47530  0.75108  1.0000
  C   C92       1.0  0.52699  0.89807  0.80911  1.0000
  C   C93       1.0  0.63231  0.52844  0.82216  1.0000
  C   C94       1.0  0.47958  0.11245  0.77968  1.0000
  C   C95       1.0  0.40096  0.50877  0.84574  1.0000
  C   C96       1.0  0.50257  0.90809  0.88884  1.0000
  C   C97       1.0  0.60319  0.50631  0.90221  1.0000
  C   C98       1.0  0.51141  0.11598  0.86798  1.0000
  C   C99       1.0  0.43761  0.51114  0.85153  1.0000
  C   C100      1.0  0.50191  0.94331  0.88433  1.0000
  C   C101      1.0  0.56669  0.50443  0.89242  1.0000
  C   C102      1.0  0.51331  0.08133  0.87139  1.0000
  H   H49       1.0  0.46359  0.53806  0.92169  1.0000
  H   H50       1.0  0.48312  0.95094  0.94699  1.0000
  H   H51       1.0  0.54445  0.48723  0.95476  1.0000
  H   H52       1.0  0.53865  0.08516  0.93836  1.0000
  C   C103      1.0  0.48036  0.44409  0.75262  1.0000
  C   C104      1.0  0.03799  0.48391  0.76368  1.0000
  C   C105      1.0  0.45633  0.41631  0.83138  1.0000
  C   C106      1.0  0.04785  0.46295  0.84574  1.0000
  C   C107      1.0  0.45538  0.37967  0.82459  1.0000
  C   C108      1.0  0.08297  0.46232  0.83908  1.0000
  C   C109      1.0  0.47844  0.36950  0.73709  1.0000
  C   C110      1.0  0.10962  0.48252  0.74906  1.0000
  C   C111      1.0  0.50206  0.39648  0.65585  1.0000
  C   C112      1.0  0.09940  0.50199  0.66117  1.0000
  C   C113      1.0  0.50270  0.43299  0.66391  1.0000
  C   C114      1.0  0.06391  0.50214  0.66862  1.0000
  N   N13       1.0  0.33128  0.47636  0.74411  1.0000
  N   N14       1.0  0.52581  0.86114  0.81230  1.0000
  N   N15       1.0  0.14440  0.67393  0.79777  1.0000
  N   N16       1.0  0.66840  0.52809  0.83384  1.0000
  N   N17       1.0  0.48047  0.14865  0.77066  1.0000
  N   N18       1.0  0.85695  0.33364  0.76748  1.0000
  C   C115      1.0  0.29194  0.44441  0.69032  1.0000
  C   C116      1.0  0.52950  0.83643  0.69950  1.0000
  C   C117      1.0  0.15141  0.70333  0.72385  1.0000
  C   C118      1.0  0.69277  0.53286  0.73339  1.0000
  C   C119      1.0  0.44875  0.15154  0.71665  1.0000
  C   C120      1.0  0.83431  0.30415  0.64382  1.0000
  C   C121      1.0  0.26223  0.45823  0.69437  1.0000
  C   C122      1.0  0.19503  0.73292  0.72202  1.0000
  C   C123      1.0  0.79326  0.27147  0.65929  1.0000
  C   C124      1.0  0.22753  0.43752  0.75445  1.0000
  C   C125      1.0  0.20567  0.77153  0.69962  1.0000
  C   C126      1.0  0.77790  0.23027  0.58567  1.0000
  C   C127      1.0  0.26721  0.48950  0.62944  1.0000
  C   C128      1.0  0.22466  0.72260  0.73017  1.0000
  C   C129      1.0  0.76903  0.28184  0.73893  1.0000
  N   N19       1.0  0.47728  0.33237  0.73570  1.0000
  N   N20       1.0  0.66753  0.14353  0.71020  1.0000
  N   N21       1.0  0.85748  0.52805  0.80483  1.0000
  N   N22       1.0  0.52722  0.67169  0.77067  1.0000
  N   N23       1.0  0.33231  0.85842  0.74182  1.0000
  N   N24       1.0  0.14558  0.48191  0.75543  1.0000
  C   C130      1.0  0.48168  0.30784  0.62389  1.0000
  C   C131      1.0  0.67216  0.17897  0.67922  1.0000
  C   C132      1.0  0.81789  0.49539  0.78329  1.0000
  C   C133      1.0  0.49444  0.67646  0.75457  1.0000
  C   C134      1.0  0.31696  0.81725  0.67537  1.0000
  C   C135      1.0  0.16954  0.48638  0.65343  1.0000
  C   C136      1.0  0.71470  0.21023  0.67263  1.0000
  C   C137      1.0  0.27472  0.78910  0.69619  1.0000
  C   C138      1.0  0.20246  0.47816  0.68024  1.0000
  C   C139      1.0  0.72963  0.25161  0.74218  1.0000
  C   C140      1.0  0.26401  0.75020  0.71543  1.0000
  C   C141      1.0  0.23712  0.49866  0.61959  1.0000
  C   C142      1.0  0.73925  0.19965  0.59597  1.0000
  C   C143      1.0  0.24525  0.79962  0.68916  1.0000
  C   C144      1.0  0.19828  0.44802  0.75015  1.0000
  H   H53       1.0  0.40941  0.42183  0.60685  1.0000
  H   H54       1.0  0.56856  0.97919  0.65768  1.0000
  H   H55       1.0  0.58158  0.56315  0.65704  1.0000
  H   H56       1.0  0.42723  0.00850  0.64221  1.0000
  H   H57       1.0  0.34379  0.41730  0.59432  1.0000
  H   H58       1.0  0.57112  0.91765  0.66923  1.0000
  H   H59       1.0  0.64687  0.56710  0.67454  1.0000
  H   H60       1.0  0.42353  0.06984  0.63440  1.0000
  H   H61       1.0  0.39876  0.53318  0.91477  1.0000
  H   H62       1.0  0.48432  0.88813  0.95458  1.0000
  H   H63       1.0  0.60951  0.49082  0.97277  1.0000
  H   H64       1.0  0.53508  0.14612  0.93340  1.0000
  H   H65       1.0  0.43879  0.42426  0.90074  1.0000
  H   H66       1.0  0.02814  0.44785  0.91851  1.0000
  H   H67       1.0  0.43713  0.35908  0.88862  1.0000
  H   H68       1.0  0.09047  0.44686  0.90634  1.0000
  H   H69       1.0  0.51943  0.38844  0.58645  1.0000
  H   H70       1.0  0.11898  0.51637  0.58736  1.0000
  H   H71       1.0  0.52126  0.45356  0.60064  1.0000
  H   H72       1.0  0.05606  0.51701  0.59975  1.0000
  O   O13       1.0  0.28148  0.40810  0.64115  1.0000
  O   O14       1.0  0.53824  0.84553  0.58347  1.0000
  O   O15       1.0  0.12468  0.70524  0.65901  1.0000
  O   O16       1.0  0.68783  0.54155  0.61882  1.0000
  O   O17       1.0  0.41371  0.12215  0.68077  1.0000
  O   O18       1.0  0.84542  0.30390  0.52435  1.0000
  H   H73       1.0  0.22379  0.41330  0.80448  1.0000
  H   H74       1.0  0.18216  0.77854  0.68866  1.0000
  H   H75       1.0  0.79657  0.22277  0.52133  1.0000
  H   H76       1.0  0.29393  0.50553  0.58177  1.0000
  H   H77       1.0  0.21688  0.69241  0.74374  1.0000
  H   H78       1.0  0.78076  0.31379  0.79570  1.0000
  O   O19       1.0  0.48954  0.31599  0.50628  1.0000
  O   O20       1.0  0.64436  0.18485  0.65971  1.0000
  O   O21       1.0  0.80791  0.45896  0.76405  1.0000
  O   O22       1.0  0.45943  0.64862  0.74904  1.0000
  O   O23       1.0  0.33535  0.80406  0.60419  1.0000
  O   O24       1.0  0.16437  0.49544  0.54014  1.0000
  H   H79       1.0  0.71005  0.25942  0.79920  1.0000
  H   H80       1.0  0.28689  0.74209  0.71813  1.0000
  H   H81       1.0  0.23968  0.52125  0.56288  1.0000
  H   H82       1.0  0.72755  0.16753  0.54107  1.0000
  H   H83       1.0  0.25297  0.82925  0.66993  1.0000
  H   H84       1.0  0.17148  0.43176  0.79703  1.0000
  H   H85       1.0  0.69340  0.14560  0.74739  1.0000
  H   H86       1.0  0.84716  0.32794  0.86277  1.0000
  H   H87       1.0  0.86227  0.55677  0.84199  1.0000
  H   H88       1.0  0.67889  0.52828  0.93449  1.0000
  H   H89       1.0  0.47623  0.32454  0.83208  1.0000
  H   H90       1.0  0.33474  0.50386  0.79370  1.0000
  H   H91       1.0  0.15632  0.48186  0.85514  1.0000
  H   H92       1.0  0.16862  0.67951  0.86371  1.0000
  H   H93       1.0  0.31535  0.86383  0.80947  1.0000
  H   H94       1.0  0.52304  0.85282  0.90817  1.0000
  H   H95       1.0  0.55475  0.69799  0.80266  1.0000
  H   H96       1.0  0.50674  0.17575  0.81434  1.0000
  C   C145      1.0  0.43298  0.23356  0.71508  1.0000
  C   C146      1.0  0.46738  0.26471  0.67888  1.0000
  C  Sn1       1.0  0.49868  0.25863  0.64499  1.0000
  C  Sn2       1.0  0.49539  0.22064  0.64744  1.0000
  C   C147      1.0  0.46084  0.18966  0.68369  1.0000
  C   C148      1.0  0.42970  0.19607  0.71747  1.0000
  H   H97       1.0  0.40888  0.23851  0.74114  1.0000
  O  Te1       1.0  0.53285  0.29008  0.60911  1.0000
  O  Te2       1.0  0.52621  0.21374  0.61397  1.0000
  H   H98       1.0  0.40306  0.17194  0.74540  1.0000
  Mg  Mg1       1.0  0.56680  0.26599  0.57181  1.0000
  C   C149      1.0  0.50990  0.40550  0.13418  1.0000
  C   C150      1.0  0.49075  0.37621  0.21270  1.0000
  C  Sn3       1.0  0.46683  0.38066  0.30972  1.0000
  C  Sn4       1.0  0.46204  0.41508  0.32821  1.0000
  C   C151      1.0  0.48130  0.44420  0.24907  1.0000
  C   C152      1.0  0.50518  0.43945  0.15230  1.0000
  H   H99       1.0  0.52835  0.40182  0.05925  1.0000
  O  Te3       1.0  0.44793  0.35112  0.38735  1.0000
  O  Te4       1.0  0.43830  0.42027  0.42442  1.0000
  H   H100      1.0  0.51997  0.46212  0.09145  1.0000
  Mg  Mg2       1.0  0.41867  0.37174  0.50559  1.0000
  C   C153      1.0  0.50387  0.91685  0.41201  1.0000
  C   C154      1.0  0.52074  0.89790  0.32644  1.0000
  C  Sn5       1.0  0.54401  0.91675  0.22737  1.0000
  C  Sn6       1.0  0.55048  0.95528  0.21399  1.0000
  C   C155      1.0  0.53349  0.97399  0.30017  1.0000
  C   C156      1.0  0.51024  0.95486  0.39893  1.0000
  H   H101      1.0  0.48589  0.90206  0.48849  1.0000
  O  Te5       1.0  0.56064  0.89739  0.14267  1.0000
  O  Te6       1.0  0.57363  0.97480  0.11587  1.0000
  H   H102      1.0  0.49720  0.96955  0.46524  1.0000
  Mg  Mg3       1.0  0.58993  0.93618  0.02442  1.0000
  C   C157      1.0  0.54702  0.77230  0.65320  1.0000
  C   C158      1.0  0.52559  0.79148  0.69424  1.0000
  C  Sn7       1.0  0.49382  0.77374  0.76955  1.0000
  C  Sn8       1.0  0.48339  0.73612  0.80430  1.0000
  C   C159      1.0  0.50503  0.71719  0.76285  1.0000
  C   C160      1.0  0.53676  0.73520  0.68748  1.0000
  H   H103      1.0  0.57158  0.78624  0.59495  1.0000
  O  Te7       1.0  0.47271  0.79330  0.80969  1.0000
  O  Te8       1.0  0.45178  0.71773  0.87954  1.0000
  H   H104      1.0  0.55337  0.72036  0.65580  1.0000
  Mg  Mg4       1.0  0.43201  0.75618  0.91074  1.0000
  C   C161      1.0  0.55944  0.60926  0.40318  1.0000
  C   C162      1.0  0.53417  0.56969  0.31323  1.0000
  C  Sn9       1.0  0.50699  0.56322  0.19757  1.0000
  C  Sn10      1.0  0.50514  0.59704  0.17172  1.0000
  C   C163      1.0  0.53057  0.63651  0.26227  1.0000
  C   C164      1.0  0.55765  0.64265  0.37773  1.0000
  H   H105      1.0  0.58041  0.61401  0.49246  1.0000
  O  Te9       1.0  0.48195  0.52348  0.10879  1.0000
  O  Te10      1.0  0.47826  0.59145  0.05686  1.0000
  H   H106      1.0  0.57723  0.67329  0.44730  1.0000
  Mg  Mg5       1.0  0.49765  0.60454  0.96608  1.0000
  C   C165      1.0  0.55622  0.62868  0.88772  1.0000
  C   C166      1.0  0.53360  0.63587  0.79411  1.0000
  C  Sn11      1.0  0.50199  0.60298  0.69029  1.0000
  C  Sn12      1.0  0.49292  0.56216  0.68029  1.0000
  C   C167      1.0  0.51571  0.55529  0.77451  1.0000
  C   C168      1.0  0.54728  0.58843  0.87797  1.0000
  H   H107      1.0  0.58063  0.65432  0.96782  1.0000
  O  Te11      1.0  0.47971  0.61072  0.59759  1.0000
  O  Te12      1.0  0.46148  0.52872  0.57757  1.0000
  H   H108      1.0  0.56477  0.58285  0.95049  1.0000
  Mg  Mg6       1.0  0.43979  0.55498  0.47549  1.0000
  C   C169      1.0  0.89686  0.48788  0.68428  1.0000
  C   C170      1.0  0.89037  0.51583  0.77687  1.0000
  C  Sn13      1.0  0.92230  0.54991  0.87620  1.0000
  C  Sn14      1.0  0.96142  0.55605  0.88268  1.0000
  C   C171      1.0  0.96761  0.52793  0.78952  1.0000
  C   C172      1.0  0.93544  0.49392  0.69057  1.0000
  H   H109      1.0  0.87198  0.46158  0.60766  1.0000
  O  Te13      1.0  0.91528  0.57752  0.96795  1.0000
  O  Te14      1.0  0.99387  0.58987  0.98089  1.0000
  H   H110      1.0  0.94048  0.47231  0.61883  1.0000
  Mg  Mg7       1.0  0.92183  0.54584  0.08337  1.0000
  C   C173      1.0  0.62711  0.07948  0.84525  1.0000
  C   C174      1.0  0.63318  0.10308  0.74617  1.0000
  C  Sn15      1.0  0.60043  0.09590  0.65371  1.0000
  C  Sn16      1.0  0.56091  0.06449  0.66084  1.0000
  C   C175      1.0  0.05731  0.04106  0.76041  1.0000
  C   C176      1.0  0.09030  0.04850  0.85240  1.0000
  H   H111      1.0  0.65263  0.08525  0.91648  1.0000
  O  Te15      1.0  0.60702  0.11975  0.55532  1.0000
  O  Te16      1.0  0.52764  0.05666  0.56973  1.0000
  H   H112      1.0  0.08559  0.03024  0.92916  1.0000
  Mg  Mg8       1.0  0.55203  0.09740  0.45384  1.0000
  C   C177      1.0  0.60664  0.55699  0.23313  1.0000
  C   C178      1.0  0.57190  0.53124  0.28347  1.0000
  C  Sn17      1.0  0.57204  0.50492  0.36335  1.0000
  C  Sn18      1.0  0.60768  0.50445  0.39324  1.0000
  C   C179      1.0  0.64228  0.53036  0.34248  1.0000
  C   C180      1.0  0.64181  0.55656  0.26261  1.0000
  H   H113      1.0  0.60628  0.57729  0.17140  1.0000
  O  Te17      1.0  0.53707  0.47937  0.41279  1.0000
  O  Te18      1.0  0.60866  0.47845  0.47287  1.0000
  H   H114      1.0  0.66872  0.57652  0.22372  1.0000
  Mg  Mg9       1.0  0.55336  0.44935  0.51681  1.0000
  C   C181      1.0  0.74266  0.48445  0.84965  1.0000
  C   C182      1.0  0.77759  0.49980  0.78830  1.0000
  C  Sn19      1.0  0.78778  0.53103  0.71766  1.0000
  C  Sn20      1.0  0.76249  0.54713  0.70848  1.0000
  C   C183      1.0  0.72762  0.53159  0.77029  1.0000
  C   C184      1.0  0.71770  0.50033  0.84069  1.0000
  H   H115      1.0  0.73499  0.46028  0.90418  1.0000
  O  Te19      1.0  0.82279  0.54600  0.65692  1.0000
  O  Te20      1.0  0.77197  0.57836  0.63855  1.0000
  H   H116      1.0  0.69067  0.48847  0.88826  1.0000
  Mg  Mg10      1.0  0.82288  0.58867  0.57277  1.0000
  C   C185      1.0  0.96479  0.56214  0.38527  1.0000
  C   C186      1.0  0.96901  0.52911  0.32254  1.0000
  C  Sn21      1.0  0.93589  0.49231  0.23882  1.0000
  C  Sn22      1.0  0.89788  0.48861  0.21766  1.0000
  C   C187      1.0  0.89398  0.52185  0.28080  1.0000
  C   C188      1.0  0.92731  0.55853  0.36441  1.0000
  H   H117      1.0  0.99058  0.59053  0.44990  1.0000
  O  Te21      1.0  0.94064  0.45960  0.17697  1.0000
  O  Te22      1.0  0.86429  0.45219  0.13444  1.0000
  H   H118      1.0  0.92403  0.58411  0.41289  1.0000
  Mg  Mg11      1.0  0.88592  0.41625  0.07255  1.0000
  C   C189      1.0  0.06003  0.61857  0.70628  1.0000
  C   C190      1.0  0.09841  0.63787  0.78743  1.0000
  C  Sn23      1.0  0.10717  0.61782  0.87569  1.0000
  C  Sn24      1.0  0.07689  0.57770  0.88259  1.0000
  C   C191      1.0  0.03860  0.55864  0.80091  1.0000
  C   C192      1.0  0.03015  0.57899  0.71298  1.0000
  H   H119      1.0  0.05350  0.63430  0.63818  1.0000
  O  Te23      1.0  0.14566  0.63755  0.95609  1.0000
  O  Te24      1.0  0.08483  0.55695  0.96988  1.0000
  H   H120      1.0  0.00044  0.56403  0.65009  1.0000
  Mg  Mg12      1.0  0.09455  0.52360  0.05917  1.0000
  C   C193      1.0  0.61026  0.05841  0.34371  1.0000
  C   C194      1.0  0.57048  0.04354  0.28536  1.0000
  C  Sn25      1.0  0.56217  0.06241  0.19077  1.0000
  C  Sn26      1.0  0.59432  0.09679  0.15407  1.0000
  C   C195      1.0  0.63401  0.11142  0.21295  1.0000
  C   C196      1.0  0.64199  0.09231  0.30754  1.0000
  H   H121      1.0  0.61644  0.04362  0.41684  1.0000
  O  Te25      1.0  0.52225  0.04716  0.13349  1.0000
  O  Te26      1.0  0.58686  0.11622  0.05975  1.0000
  H   H122      1.0  0.67279  0.10381  0.35262  1.0000
  Mg  Mg13      1.0  0.52740  0.08410  0.00972  1.0000
  C   C197      1.0  0.22366  0.43396  0.23822  1.0000
  C   C198      1.0  0.25972  0.45137  0.18409  1.0000
  C  Sn27      1.0  0.27173  0.48568  0.12847  1.0000
  C  Sn28      1.0  0.24713  0.50281  0.12720  1.0000
  C   C199      1.0  0.21112  0.48518  0.18170  1.0000
  C   C200      1.0  0.19938  0.45084  0.23706  1.0000
  H   H123      1.0  0.21458  0.40740  0.28113  1.0000
  O  Te27      1.0  0.30784  0.50269  0.07477  1.0000
  O  Te28      1.0  0.25842  0.53711  0.07229  1.0000
  H   H124      1.0  0.17147  0.43738  0.27905  1.0000
  Mg  Mg14      1.0  0.31030  0.54931  0.01122  1.0000
  C   C201      1.0  0.38818  0.94179  0.85929  1.0000
  C   C202      1.0  0.37114  0.90259  0.76588  1.0000
  C  Sn29      1.0  0.39315  0.89425  0.66875  1.0000
  C  Sn30      1.0  0.43296  0.92580  0.66535  1.0000
  C   C203      1.0  0.44974  0.96491  0.75931  1.0000
  C   C204      1.0  0.42745  0.97293  0.85604  1.0000
  H   H125      1.0  0.37094  0.94800  0.93419  1.0000
  O  Te29      1.0  0.37566  0.85491  0.57614  1.0000
  O  Te30      1.0  0.45563  0.91829  0.56939  1.0000
  H   H126      1.0  0.44066  0.00328  0.92842  1.0000
  Mg  Mg15      1.0  0.41862  0.85975  0.46461  1.0000
  C   C205      1.0  0.77992  0.55399  0.19869  1.0000
  C   C206      1.0  0.74136  0.53316  0.23344  1.0000
  C  Sn31      1.0  0.73014  0.50080  0.29916  1.0000
  C  Sn32      1.0  0.75811  0.48915  0.33058  1.0000
  C   C207      1.0  0.79661  0.51021  0.29548  1.0000
  C   C208      1.0  0.80752  0.54254  0.22969  1.0000
  H   H127      1.0  0.78837  0.57902  0.14786  1.0000
  O  Te31      1.0  0.69150  0.48030  0.33311  1.0000
  O  Te32      1.0  0.74768  0.45693  0.39627  1.0000
  H   H128      1.0  0.83738  0.55868  0.20289  1.0000
  Mg  Mg16      1.0  0.69145  0.43838  0.42179  1.0000
  C   C209      1.0  0.95192  0.39739  0.68442  1.0000
  C   C210      1.0  0.96370  0.43726  0.76134  1.0000
  C  Sn33      1.0  0.94026  0.44334  0.85710  1.0000
  C  Sn34      1.0  0.90437  0.40881  0.87601  1.0000
  C   C211      1.0  0.89285  0.36905  0.79862  1.0000
  C   C212      1.0  0.91653  0.36332  0.70304  1.0000
  H   H129      1.0  0.97024  0.39295  0.61053  1.0000
  O  Te33      1.0  0.95247  0.48337  0.93306  1.0000
  O  Te34      1.0  0.88038  0.41400  0.97106  1.0000
  H   H130      1.0  0.90741  0.33245  0.64357  1.0000
  Mg  Mg17      1.0  0.86233  0.40155  0.05009  1.0000
  C   C213      1.0  0.44662  0.05919  0.17283  1.0000
  C   C214      1.0  0.47190  0.10046  0.24886  1.0000
  C  Sn35      1.0  0.50589  0.11229  0.34565  1.0000
  C  Sn36      1.0  0.51465  0.08218  0.36646  1.0000
  C   C215      1.0  0.48918  0.04098  0.28980  1.0000
  C   C216      1.0  0.45525  0.02948  0.19324  1.0000
  H   H131      1.0  0.42037  0.05029  0.09806  1.0000
  O  Te35      1.0  0.53082  0.15365  0.42077  1.0000
  O  Te36      1.0  0.54843  0.09316  0.46250  1.0000
  H   H132      1.0  0.93785  0.99753  0.13433  1.0000
  Mg  Mg18      1.0  0.57328  0.15341  0.53981  1.0000
