data_image0
_chemical_formula_structural       C18H2C24N6C9N6C9H22O6H2O6H14C30H4C12N6C21N6C21H20O6H10O6H22SnCSn2CSnTe4Mg2SnCSn2CSnTe4Mg2SnCSn2CSnTe4Mg2SnCSn2CSnTe4Mg2SnCSn2CSnTe4Mg2SnCSn2CSnTe4Mg2SnCSn2CSnTe4Mg2SnCSn2CSnTe4Mg2SnCSn2CSnTe4Mg2SnCSn2CSnTe4Mg2SnCSn2CSnTe4Mg2SnCSn2CSnTe4Mg2SnCSn2CSnTe4Mg2SnCSn2CSnTe4Mg2SnCSn2CSnTe4Mg2SnCSn2CSnTe4Mg2SnCSn2CSnTe4Mg2SnCSn2CSnTe4Mg2
_chemical_formula_sum              "C180 H96 N24 O24 Sn72 Te72 Mg36"
_cell_length_a       39.0566
_cell_length_b       38.8034
_cell_length_c       9.64206
_cell_angle_alpha    101.372
_cell_angle_beta     92.469
_cell_angle_gamma    120.36

_symmetry_space_group_name_H-M    'P1'
_space_group_IT_number       1

loop_
  _space_group_symop_operation_xyz
  'x, y, z'

loop_
  _atom_site_type_symbol
  _atom_site_label
  _atom_site_symmetry_multiplicity
  _atom_site_fract_x
  _atom_site_fract_y
  _atom_site_fract_z
  _atom_site_occupancy
  C   C1        1.0  0.48889  0.48505  0.26601  1.0000
  C   C2        1.0  0.52382  0.00423  0.28105  1.0000
  C   C3        1.0  0.00629  0.52003  0.29736  1.0000
  C   C4        1.0  0.52531  0.52174  0.28524  1.0000
  C   C5        1.0  0.48779  0.00311  0.28120  1.0000
  C   C6        1.0  0.00811  0.48489  0.28123  1.0000
  C   C7        1.0  0.04265  0.56131  0.30841  1.0000
  C   C8        1.0  0.56476  0.52507  0.30415  1.0000
  C   C9        1.0  0.04181  0.58483  0.21608  1.0000
  C   C10       1.0  0.59601  0.55171  0.23984  1.0000
  C   C11       1.0  0.07508  0.62286  0.21501  1.0000
  C   C12       1.0  0.63283  0.55409  0.24635  1.0000
  C   C13       1.0  0.11106  0.63848  0.30884  1.0000
  C   C14       1.0  0.63929  0.52942  0.31865  1.0000
  C   C15       1.0  0.11191  0.61623  0.40648  1.0000
  C   C16       1.0  0.60920  0.50403  0.38902  1.0000
  C   C17       1.0  0.07827  0.57838  0.40645  1.0000
  C   C18       1.0  0.57282  0.50228  0.38286  1.0000
  H   H1        1.0  0.07977  0.56185  0.48304  1.0000
  H   H2        1.0  0.55003  0.48264  0.43857  1.0000
  C   C19       1.0  0.56139  0.04026  0.26138  1.0000
  C   C20       1.0  0.52790  0.56112  0.28300  1.0000
  C   C21       1.0  0.44851  0.96420  0.26765  1.0000
  C   C22       1.0  0.04493  0.48370  0.26223  1.0000
  C   C23       1.0  0.59899  0.05207  0.33602  1.0000
  C   C24       1.0  0.55440  0.59785  0.38790  1.0000
  C   C25       1.0  0.41898  0.96430  0.34622  1.0000
  C   C26       1.0  0.05094  0.45611  0.31995  1.0000
  C   C27       1.0  0.63434  0.08694  0.32363  1.0000
  C   C28       1.0  0.55538  0.63430  0.38782  1.0000
  C   C29       1.0  0.38167  0.92859  0.33319  1.0000
  C   C30       1.0  0.08569  0.45488  0.31131  1.0000
  C   C31       1.0  0.63309  0.11135  0.23622  1.0000
  C   C32       1.0  0.53022  0.63484  0.28129  1.0000
  C   C33       1.0  0.37215  0.89127  0.23834  1.0000
  C   C34       1.0  0.11578  0.48111  0.24344  1.0000
  C   C35       1.0  0.59607  0.09925  0.15708  1.0000
  C   C36       1.0  0.50439  0.59866  0.17383  1.0000
  C   C37       1.0  0.40082  0.89057  0.15645  1.0000
  C   C38       1.0  0.10981  0.50770  0.18028  1.0000
  C   C39       1.0  0.56122  0.06391  0.16801  1.0000
  C   C40       1.0  0.50378  0.56265  0.17513  1.0000
  C   C41       1.0  0.43816  0.92657  0.17243  1.0000
  C   C42       1.0  0.07474  0.50851  0.18904  1.0000
  N   N1        1.0  0.33917  0.47914  0.23296  1.0000
  N   N2        1.0  0.52619  0.85959  0.31132  1.0000
  N   N3        1.0  0.14717  0.67481  0.30608  1.0000
  N   N4        1.0  0.67540  0.52918  0.32766  1.0000
  N   N5        1.0  0.48294  0.14621  0.24815  1.0000
  N   N6        1.0  0.86128  0.33459  0.26881  1.0000
  C   C43       1.0  0.30003  0.44703  0.17708  1.0000
  C   C44       1.0  0.52885  0.83393  0.19881  1.0000
  C   C45       1.0  0.15418  0.69977  0.21325  1.0000
  C   C46       1.0  0.70065  0.53638  0.22977  1.0000
  C   C47       1.0  0.45241  0.14903  0.18308  1.0000
  C   C48       1.0  0.83388  0.30784  0.14829  1.0000
  C   C49       1.0  0.19765  0.72996  0.21179  1.0000
  C   C50       1.0  0.20607  0.76372  0.15594  1.0000
  C   C51       1.0  0.22934  0.72453  0.25159  1.0000
  N   N7        1.0  0.48067  0.33165  0.22792  1.0000
  N   N8        1.0  0.66924  0.14654  0.22480  1.0000
  N   N9        1.0  0.86373  0.52813  0.29697  1.0000
  N   N10       1.0  0.53175  0.67201  0.27872  1.0000
  N   N11       1.0  0.33363  0.85624  0.22884  1.0000
  N   N12       1.0  0.15122  0.47950  0.24710  1.0000
  C   C52       1.0  0.48705  0.30822  0.11861  1.0000
  C   C53       1.0  0.67369  0.18289  0.20333  1.0000
  C   C54       1.0  0.82385  0.49648  0.27740  1.0000
  C   C55       1.0  0.49831  0.67582  0.26510  1.0000
  C   C56       1.0  0.31932  0.81514  0.16463  1.0000
  C   C57       1.0  0.17696  0.48824  0.15075  1.0000
  C   C58       1.0  0.27692  0.78648  0.18338  1.0000
  C   C59       1.0  0.26857  0.75227  0.23587  1.0000
  C   C60       1.0  0.24540  0.79211  0.14391  1.0000
  H   H3        1.0  0.01425  0.57232  0.14118  1.0000
  H   H4        1.0  0.59090  0.57012  0.17983  1.0000
  H   H5        1.0  0.07401  0.64005  0.14071  1.0000
  H   H6        1.0  0.65610  0.57400  0.19306  1.0000
  H   H7        1.0  0.13926  0.62881  0.48288  1.0000
  H   H8        1.0  0.61487  0.48613  0.44979  1.0000
  H   H9        1.0  0.60025  0.03427  0.40798  1.0000
  H   H10       1.0  0.57362  0.59753  0.47210  1.0000
  H   H11       1.0  0.42573  0.99303  0.41881  1.0000
  H   H12       1.0  0.02841  0.43618  0.37591  1.0000
  H   H13       1.0  0.66289  0.09589  0.38500  1.0000
  H   H14       1.0  0.57516  0.66222  0.47220  1.0000
  H   H15       1.0  0.35980  0.92952  0.39768  1.0000
  H   H16       1.0  0.09041  0.43448  0.36110  1.0000
  H   H17       1.0  0.59535  0.11743  0.08606  1.0000
  H   H18       1.0  0.48564  0.59949  0.08950  1.0000
  H   H19       1.0  0.39352  0.86199  0.08197  1.0000
  H   H20       1.0  0.13243  0.52718  0.12402  1.0000
  H   H21       1.0  0.53293  0.05439  0.10371  1.0000
  H   H22       1.0  0.48392  0.53439  0.09294  1.0000
  H   H23       1.0  0.46009  0.92541  0.10946  1.0000
  H   H24       1.0  0.07046  0.52897  0.13825  1.0000
  O   O1        1.0  0.29000  0.41089  0.12613  1.0000
  O   O2        1.0  0.53633  0.84193  0.08051  1.0000
  O   O3        1.0  0.12726  0.69732  0.13180  1.0000
  O   O4        1.0  0.69667  0.54744  0.11974  1.0000
  O   O5        1.0  0.41804  0.11942  0.13347  1.0000
  O   O6        1.0  0.84026  0.30934  0.02325  1.0000
  H   H25       1.0  0.18096  0.76656  0.12083  1.0000
  H   H26       1.0  0.22358  0.69791  0.29067  1.0000
  O   O7        1.0  0.49769  0.31803  0.00537  1.0000
  O   O8        1.0  0.64588  0.18896  0.18874  1.0000
  O   O9        1.0  0.81266  0.45980  0.26102  1.0000
  O   O10       1.0  0.46375  0.64759  0.26319  1.0000
  O   O11       1.0  0.33861  0.80237  0.09779  1.0000
  O   O12       1.0  0.17368  0.50168  0.04637  1.0000
  H   H27       1.0  0.29312  0.74790  0.26426  1.0000
  H   H28       1.0  0.25147  0.81802  0.09963  1.0000
  H   H29       1.0  0.69524  0.14842  0.25926  1.0000
  H   H30       1.0  0.85419  0.32779  0.36564  1.0000
  H   H31       1.0  0.86906  0.55716  0.33110  1.0000
  H   H32       1.0  0.68421  0.52641  0.42520  1.0000
  H   H33       1.0  0.47705  0.32275  0.32266  1.0000
  H   H34       1.0  0.34244  0.50650  0.28333  1.0000
  H   H35       1.0  0.16011  0.47624  0.34346  1.0000
  H   H36       1.0  0.17105  0.68319  0.38044  1.0000
  H   H37       1.0  0.31549  0.86118  0.29166  1.0000
  H   H38       1.0  0.52436  0.85227  0.40897  1.0000
  H   H39       1.0  0.55910  0.69862  0.30679  1.0000
  H   H40       1.0  0.50837  0.17344  0.29835  1.0000
  C   C61       1.0  0.48187  0.48370  0.76685  1.0000
  C   C62       1.0  0.52157  0.00479  0.78148  1.0000
  C   C63       1.0  0.00077  0.52153  0.79000  1.0000
  C   C64       1.0  0.51793  0.52053  0.78257  1.0000
  C   C65       1.0  0.48584  0.00431  0.77911  1.0000
  C   C66       1.0  0.00133  0.48584  0.78093  1.0000
  C   C67       1.0  0.44225  0.48052  0.76489  1.0000
  C   C68       1.0  0.52449  0.96912  0.79753  1.0000
  C   C69       1.0  0.48377  0.04179  0.78680  1.0000
  C   C70       1.0  0.96544  0.44622  0.78754  1.0000
  C   C71       1.0  0.40733  0.44648  0.67443  1.0000
  C   C72       1.0  0.55024  0.95961  0.72406  1.0000
  C   C73       1.0  0.45114  0.03877  0.70514  1.0000
  C   C74       1.0  0.95780  0.40892  0.69767  1.0000
  C   C75       1.0  0.37013  0.44360  0.66607  1.0000
  C   C76       1.0  0.55173  0.92481  0.72944  1.0000
  C   C77       1.0  0.44873  0.07306  0.69987  1.0000
  C   C78       1.0  0.92274  0.37144  0.69121  1.0000
  C   C79       1.0  0.36685  0.47530  0.75108  1.0000
  C   C80       1.0  0.52699  0.89807  0.80911  1.0000
  C   C81       1.0  0.47958  0.11245  0.77968  1.0000
  C   C82       1.0  0.89424  0.37042  0.77643  1.0000
  C   C83       1.0  0.40096  0.50877  0.84574  1.0000
  C   C84       1.0  0.50257  0.90809  0.88884  1.0000
  C   C85       1.0  0.51141  0.11598  0.86798  1.0000
  C   C86       1.0  0.90245  0.40688  0.87328  1.0000
  C   C87       1.0  0.43761  0.51114  0.85153  1.0000
  C   C88       1.0  0.50191  0.94331  0.88433  1.0000
  C   C89       1.0  0.51331  0.08133  0.87139  1.0000
  C   C90       1.0  0.93771  0.44402  0.87927  1.0000
  H   H41       1.0  0.46359  0.53806  0.92169  1.0000
  H   H42       1.0  0.48312  0.95094  0.94699  1.0000
  H   H43       1.0  0.53865  0.08516  0.93836  1.0000
  H   H44       1.0  0.94350  0.47208  0.95341  1.0000
  C   C91       1.0  0.55941  0.04068  0.76262  1.0000
  C   C92       1.0  0.03799  0.48391  0.76368  1.0000
  C   C93       1.0  0.59684  0.05329  0.84089  1.0000
  C   C94       1.0  0.04785  0.46295  0.84574  1.0000
  C   C95       1.0  0.63230  0.08728  0.82410  1.0000
  C   C96       1.0  0.08297  0.46232  0.83908  1.0000
  C   C97       1.0  0.63126  0.10973  0.72814  1.0000
  C   C98       1.0  0.10962  0.48252  0.74906  1.0000
  C   C99       1.0  0.59430  0.09722  0.64764  1.0000
  C   C100      1.0  0.09940  0.50199  0.66117  1.0000
  C   C101      1.0  0.55932  0.06289  0.66366  1.0000
  C   C102      1.0  0.06391  0.50214  0.66862  1.0000
  N   N13       1.0  0.33128  0.47636  0.74411  1.0000
  N   N14       1.0  0.52581  0.86114  0.81230  1.0000
  N   N15       1.0  0.14440  0.67393  0.79777  1.0000
  N   N16       1.0  0.66840  0.52809  0.83384  1.0000
  N   N17       1.0  0.48047  0.14865  0.77066  1.0000
  N   N18       1.0  0.85695  0.33364  0.76748  1.0000
  C   C103      1.0  0.29194  0.44441  0.69032  1.0000
  C   C104      1.0  0.52950  0.83643  0.69950  1.0000
  C   C105      1.0  0.15141  0.70333  0.72385  1.0000
  C   C106      1.0  0.69277  0.53286  0.73339  1.0000
  C   C107      1.0  0.44875  0.15154  0.71665  1.0000
  C   C108      1.0  0.83431  0.30415  0.64382  1.0000
  C   C109      1.0  0.26223  0.45823  0.69437  1.0000
  C   C110      1.0  0.52147  0.79610  0.72111  1.0000
  C   C111      1.0  0.19503  0.73292  0.72202  1.0000
  C   C112      1.0  0.72622  0.52568  0.76334  1.0000
  C   C113      1.0  0.46013  0.19358  0.70165  1.0000
  C   C114      1.0  0.22753  0.43752  0.75445  1.0000
  C   C115      1.0  0.54362  0.77985  0.65753  1.0000
  C   C116      1.0  0.20567  0.77153  0.69962  1.0000
  C   C117      1.0  0.76141  0.54767  0.70733  1.0000
  C   C118      1.0  0.43253  0.20608  0.72863  1.0000
  C   C119      1.0  0.26721  0.48950  0.62944  1.0000
  C   C120      1.0  0.49078  0.77305  0.79431  1.0000
  C   C121      1.0  0.22466  0.72260  0.73017  1.0000
  C   C122      1.0  0.72210  0.49508  0.83066  1.0000
  C   C123      1.0  0.49517  0.21891  0.65028  1.0000
  N   N19       1.0  0.47728  0.33237  0.73570  1.0000
  N   N20       1.0  0.66753  0.14353  0.71020  1.0000
  N   N21       1.0  0.85748  0.52805  0.80483  1.0000
  N   N22       1.0  0.52722  0.67169  0.77067  1.0000
  N   N23       1.0  0.33231  0.85842  0.74182  1.0000
  N   N24       1.0  0.14558  0.48191  0.75543  1.0000
  C   C124      1.0  0.48168  0.30784  0.62389  1.0000
  C   C125      1.0  0.67216  0.17897  0.67922  1.0000
  C   C126      1.0  0.81789  0.49539  0.78329  1.0000
  C   C127      1.0  0.49444  0.67646  0.75457  1.0000
  C   C128      1.0  0.31696  0.81725  0.67537  1.0000
  C   C129      1.0  0.16954  0.48638  0.65343  1.0000
  C   C130      1.0  0.47488  0.26859  0.65362  1.0000
  C   C131      1.0  0.78751  0.50811  0.78283  1.0000
  C   C132      1.0  0.50521  0.71853  0.74384  1.0000
  C   C133      1.0  0.27472  0.78910  0.69619  1.0000
  C   C134      1.0  0.20246  0.47816  0.68024  1.0000
  C   C135      1.0  0.50199  0.25570  0.62269  1.0000
  C   C136      1.0  0.75217  0.48583  0.83765  1.0000
  C   C137      1.0  0.48218  0.73419  0.80314  1.0000
  C   C138      1.0  0.26401  0.75020  0.71543  1.0000
  C   C139      1.0  0.23712  0.49866  0.61959  1.0000
  C   C140      1.0  0.44034  0.24372  0.70807  1.0000
  C   C141      1.0  0.79210  0.53948  0.71923  1.0000
  C   C142      1.0  0.53611  0.74168  0.67147  1.0000
  C   C143      1.0  0.24525  0.79962  0.68916  1.0000
  C   C144      1.0  0.19828  0.44802  0.75015  1.0000
  H   H45       1.0  0.40941  0.42183  0.60685  1.0000
  H   H46       1.0  0.56856  0.97919  0.65768  1.0000
  H   H47       1.0  0.42723  0.00850  0.64221  1.0000
  H   H48       1.0  0.97922  0.40959  0.62822  1.0000
  H   H49       1.0  0.34379  0.41730  0.59432  1.0000
  H   H50       1.0  0.57112  0.91765  0.66923  1.0000
  H   H51       1.0  0.42353  0.06984  0.63440  1.0000
  H   H52       1.0  0.91680  0.34322  0.61794  1.0000
  H   H53       1.0  0.39876  0.53318  0.91477  1.0000
  H   H54       1.0  0.48432  0.88813  0.95458  1.0000
  H   H55       1.0  0.53508  0.14612  0.93340  1.0000
  H   H56       1.0  0.88070  0.40584  0.94188  1.0000
  H   H57       1.0  0.59798  0.03691  0.91866  1.0000
  H   H58       1.0  0.02814  0.44785  0.91851  1.0000
  H   H59       1.0  0.66081  0.09707  0.88807  1.0000
  H   H60       1.0  0.09047  0.44686  0.90634  1.0000
  H   H61       1.0  0.59385  0.11431  0.57190  1.0000
  H   H62       1.0  0.11898  0.51637  0.58736  1.0000
  H   H63       1.0  0.53097  0.05290  0.59868  1.0000
  H   H64       1.0  0.05606  0.51701  0.59975  1.0000
  O   O13       1.0  0.28148  0.40810  0.64115  1.0000
  O   O14       1.0  0.53824  0.84553  0.58347  1.0000
  O   O15       1.0  0.12468  0.70524  0.65901  1.0000
  O   O16       1.0  0.68783  0.54155  0.61882  1.0000
  O   O17       1.0  0.41371  0.12215  0.68077  1.0000
  O   O18       1.0  0.84542  0.30390  0.52435  1.0000
  H   H65       1.0  0.22379  0.41330  0.80448  1.0000
  H   H66       1.0  0.56617  0.79732  0.59628  1.0000
  H   H67       1.0  0.18216  0.77854  0.68866  1.0000
  H   H68       1.0  0.76370  0.57034  0.65145  1.0000
  H   H69       1.0  0.40504  0.18573  0.76488  1.0000
  H   H70       1.0  0.29393  0.50553  0.58177  1.0000
  H   H71       1.0  0.47307  0.78518  0.84190  1.0000
  H   H72       1.0  0.21688  0.69241  0.74374  1.0000
  H   H73       1.0  0.69476  0.47740  0.87294  1.0000
  H   H74       1.0  0.51650  0.20918  0.62717  1.0000
  O   O19       1.0  0.48954  0.31599  0.50628  1.0000
  O   O20       1.0  0.64436  0.18485  0.65971  1.0000
  O   O21       1.0  0.80791  0.45896  0.76405  1.0000
  O   O22       1.0  0.45943  0.64862  0.74904  1.0000
  O   O23       1.0  0.33535  0.80406  0.60419  1.0000
  O   O24       1.0  0.16437  0.49544  0.54014  1.0000
  H   H75       1.0  0.52832  0.27476  0.57806  1.0000
  H   H76       1.0  0.74868  0.46105  0.88390  1.0000
  H   H77       1.0  0.45788  0.71546  0.85628  1.0000
  H   H78       1.0  0.28689  0.74209  0.71813  1.0000
  H   H79       1.0  0.23968  0.52125  0.56288  1.0000
  H   H80       1.0  0.41911  0.25358  0.73047  1.0000
  H   H81       1.0  0.81874  0.55596  0.67183  1.0000
  H   H82       1.0  0.55312  0.72897  0.62111  1.0000
  H   H83       1.0  0.25297  0.82925  0.66993  1.0000
  H   H84       1.0  0.17148  0.43176  0.79703  1.0000
  H   H85       1.0  0.69340  0.14560  0.74739  1.0000
  H   H86       1.0  0.84716  0.32794  0.86277  1.0000
  H   H87       1.0  0.86227  0.55677  0.84199  1.0000
  H   H88       1.0  0.67889  0.52828  0.93449  1.0000
  H   H89       1.0  0.47623  0.32454  0.83208  1.0000
  H   H90       1.0  0.33474  0.50386  0.79370  1.0000
  H   H91       1.0  0.15632  0.48186  0.85514  1.0000
  H   H92       1.0  0.16862  0.67951  0.86371  1.0000
  H   H93       1.0  0.31535  0.86383  0.80947  1.0000
  H   H94       1.0  0.52304  0.85282  0.90817  1.0000
  H   H95       1.0  0.55475  0.69799  0.80266  1.0000
  H   H96       1.0  0.50674  0.17575  0.81434  1.0000
  C  Sn1       1.0  0.89465  0.48359  0.72513  1.0000
  C   C145      1.0  0.88992  0.51422  0.80865  1.0000
  C  Sn2       1.0  0.92354  0.55281  0.87723  1.0000
  C  Sn3       1.0  0.96272  0.56097  0.86196  1.0000
  C   C146      1.0  0.96744  0.53035  0.77846  1.0000
  C  Sn4       1.0  0.93383  0.49175  0.70985  1.0000
  O  Te1       1.0  0.86061  0.44523  0.65753  1.0000
  O  Te2       1.0  0.91805  0.58294  0.96021  1.0000
  O  Te3       1.0  0.99678  0.59937  0.92965  1.0000
  O  Te4       1.0  0.93931  0.46163  0.62691  1.0000
  Mg  Mg1       1.0  0.92645  0.55732  0.03113  1.0000
  Mg  Mg2       1.0  0.88360  0.41418  0.55588  1.0000
  C  Sn5       1.0  0.58983  0.49393  0.87372  1.0000
  C   C147      1.0  0.62252  0.51554  0.80671  1.0000
  C  Sn6       1.0  0.62496  0.54607  0.74403  1.0000
  C  Sn7       1.0  0.59410  0.55522  0.74849  1.0000
  C   C148      1.0  0.56144  0.53362  0.81549  1.0000
  C  Sn8       1.0  0.55897  0.50308  0.87818  1.0000
  O  Te5       1.0  0.58802  0.46353  0.93569  1.0000
  O  Te6       1.0  0.65792  0.56725  0.67760  1.0000
  O  Te7       1.0  0.59594  0.58564  0.68644  1.0000
  O  Te8       1.0  0.52603  0.48191  0.94459  1.0000
  Mg  Mg3       1.0  0.64685  0.60601  0.60852  1.0000
  Mg  Mg4       1.0  0.48975  0.37009  0.01377  1.0000
  C  Sn9       1.0  0.44433  0.38084  0.79984  1.0000
  C   C149      1.0  0.46568  0.36615  0.72177  1.0000
  C  Sn10      1.0  0.49840  0.39253  0.66424  1.0000
  C  Sn11      1.0  0.51004  0.43448  0.68526  1.0000
  C   C150      1.0  0.48870  0.44916  0.76331  1.0000
  C  Sn12      1.0  0.45597  0.42279  0.82086  1.0000
  O  Te9       1.0  0.41172  0.35392  0.85638  1.0000
  O  Te10      1.0  0.51928  0.37712  0.58654  1.0000
  O  Te11      1.0  0.54268  0.46140  0.62863  1.0000
  O  Te12      1.0  0.43510  0.43818  0.89854  1.0000
  Mg  Mg5       1.0  0.56164  0.42588  0.53074  1.0000
  Mg  Mg6       1.0  0.39275  0.38946  0.95444  1.0000
  C  Sn13      1.0  0.49499  0.90951  0.37053  1.0000
  C   C151      1.0  0.51557  0.89344  0.29427  1.0000
  C  Sn14      1.0  0.54679  0.91781  0.22669  1.0000
  C  Sn15      1.0  0.55768  0.95912  0.23559  1.0000
  C   C152      1.0  0.53710  0.97518  0.31183  1.0000
  C  Sn16      1.0  0.50588  0.95083  0.37943  1.0000
  O  Te13      1.0  0.46388  0.88459  0.43726  1.0000
  O  Te14      1.0  0.56691  0.90105  0.15103  1.0000
  O  Te15      1.0  0.58881  0.98405  0.16877  1.0000
  O  Te16      1.0  0.48576  0.96757  0.45507  1.0000
  Mg  Mg7       1.0  0.60723  0.94724  0.07839  1.0000
  Mg  Mg8       1.0  0.44546  0.92141  0.52781  1.0000
  C  Sn17      1.0  0.21322  0.44852  0.26991  1.0000
  C   C153      1.0  0.21385  0.48073  0.22351  1.0000
  C  Sn18      1.0  0.24215  0.50173  0.14041  1.0000
  C  Sn19      1.0  0.27040  0.49029  0.10281  1.0000
  C   C154      1.0  0.26975  0.45810  0.14918  1.0000
  C  Sn20      1.0  0.24146  0.43708  0.23232  1.0000
  O  Te17      1.0  0.18466  0.42795  0.35289  1.0000
  O  Te18      1.0  0.24220  0.53384  0.09532  1.0000
  O  Te19      1.0  0.29897  0.51089  0.01977  1.0000
  O  Te20      1.0  0.24140  0.40499  0.27737  1.0000
  Mg  Mg9       1.0  0.33430  0.62560  0.98412  1.0000
  Mg  Mg10      1.0  0.19663  0.38626  0.38851  1.0000
  C  Sn21      1.0  0.54582  0.60472  0.90769  1.0000
  C   C155      1.0  0.51932  0.56531  0.81862  1.0000
  C  Sn22      1.0  0.49650  0.56030  0.69239  1.0000
  C  Sn23      1.0  0.50028  0.59541  0.65431  1.0000
  C   C156      1.0  0.52678  0.63479  0.74333  1.0000
  C  Sn24      1.0  0.54960  0.63983  0.86962  1.0000
  O  Te21      1.0  0.52100  0.53593  0.03338  1.0000
  O  Te22      1.0  0.47019  0.52058  0.60509  1.0000
  O  Te23      1.0  0.47774  0.59109  0.52851  1.0000
  O  Te24      1.0  0.57591  0.67951  0.95687  1.0000
  Mg  Mg11      1.0  0.44602  0.53065  0.44474  1.0000
  Mg  Mg12      1.0  0.55278  0.59641  0.11719  1.0000
  C  Sn25      1.0  0.41099  0.89546  0.68164  1.0000
  C   C157      1.0  0.37960  0.89113  0.75558  1.0000
  C  Sn26      1.0  0.37928  0.92591  0.82741  1.0000
  C  Sn27      1.0  0.41097  0.96587  0.82523  1.0000
  C   C158      1.0  0.44233  0.97019  0.75132  1.0000
  C  Sn28      1.0  0.44268  0.93542  0.67947  1.0000
  O  Te25      1.0  0.41070  0.86026  0.61057  1.0000
  O  Te26      1.0  0.34758  0.92080  0.90063  1.0000
  O  Te27      1.0  0.41124  0.00109  0.89639  1.0000
  O  Te28      1.0  0.47435  0.94052  0.60627  1.0000
  Mg  Mg13      1.0  0.36142  0.97819  0.98111  1.0000
  Mg  Mg14      1.0  0.46053  0.88315  0.52569  1.0000
  C  Sn29      1.0  0.94490  0.40418  0.13849  1.0000
  C   C159      1.0  0.96389  0.44099  0.24669  1.0000
  C  Sn30      1.0  0.95243  0.44172  0.38199  1.0000
  C  Sn31      1.0  0.92137  0.40490  0.40976  1.0000
  C   C160      1.0  0.90241  0.36813  0.30160  1.0000
  C  Sn32      1.0  0.91384  0.36736  0.16626  1.0000
  O  Te29      1.0  0.95684  0.40417  0.00403  1.0000
  O  Te30      1.0  0.97185  0.47889  0.48844  1.0000
  O  Te31      1.0  0.90944  0.40495  0.54435  1.0000
  O  Te32      1.0  0.89445  0.33022  0.05986  1.0000
  Mg  Mg15      1.0  0.94492  0.46320  0.65443  1.0000
  Mg  Mg16      1.0  0.96869  0.41894  0.89386  1.0000
  C  Sn33      1.0  0.77242  0.54289  0.16107  1.0000
  C   C161      1.0  0.73565  0.52436  0.21021  1.0000
  C  Sn34      1.0  0.72941  0.50048  0.30835  1.0000
  C  Sn35      1.0  0.76058  0.49502  0.35851  1.0000
  C   C162      1.0  0.79733  0.51355  0.30939  1.0000
  C  Sn36      1.0  0.80359  0.53743  0.21122  1.0000
  O  Te33      1.0  0.77799  0.56664  0.06296  1.0000
  O  Te34      1.0  0.69239  0.48225  0.35590  1.0000
  O  Te35      1.0  0.75498  0.47125  0.45669  1.0000
  O  Te36      1.0  0.84059  0.55566  0.16370  1.0000
  Mg  Mg17      1.0  0.69930  0.45272  0.48980  1.0000
  Mg  Mg18      1.0  0.83371  0.58521  0.02987  1.0000
  C  Sn37      1.0  0.04503  0.59166  0.68254  1.0000
  C   C163      1.0  0.04087  0.56291  0.75825  1.0000
  C  Sn38      1.0  0.07064  0.57375  0.87232  1.0000
  C  Sn39      1.0  0.10528  0.61419  0.91161  1.0000
  C   C164      1.0  0.10942  0.64293  0.83593  1.0000
  C  Sn40      1.0  0.07966  0.63211  0.72182  1.0000
  O  Te37      1.0  0.01489  0.58015  0.56887  1.0000
  O  Te38      1.0  0.06582  0.54446  0.94638  1.0000
  O  Te39      1.0  0.08809  0.55262  0.02538  1.0000
  O  Te40      1.0  0.08447  0.66137  0.64781  1.0000
  Mg  Mg19      1.0  0.06780  0.50184  0.09347  1.0000
  Mg  Mg20      1.0  0.03517  0.63096  0.50075  1.0000
  C  Sn41      1.0  0.40832  0.45050  0.13285  1.0000
  C   C165      1.0  0.44504  0.48144  0.21916  1.0000
  C  Sn42      1.0  0.44649  0.51093  0.33302  1.0000
  C  Sn43      1.0  0.41049  0.50945  0.36126  1.0000
  C   C166      1.0  0.37381  0.47852  0.27499  1.0000
  C  Sn44      1.0  0.37233  0.44902  0.16109  1.0000
  O  Te41      1.0  0.40758  0.42134  0.01961  1.0000
  O  Te42      1.0  0.48355  0.54157  0.41779  1.0000
  O  Te43      1.0  0.41126  0.53865  0.47461  1.0000
  O  Te44      1.0  0.33529  0.41839  0.07636  1.0000
  Mg  Mg21      1.0  0.46905  0.57436  0.55968  1.0000
  Mg  Mg22      1.0  0.39708  0.45865  0.93450  1.0000
  C  Sn45      1.0  0.76173  0.23040  0.04560  1.0000
  C   C167      1.0  0.78463  0.27141  0.12658  1.0000
  C  Sn46      1.0  0.77487  0.28367  0.25742  1.0000
  C  Sn47      1.0  0.74153  0.25431  0.30845  1.0000
  C   C168      1.0  0.71866  0.21333  0.22751  1.0000
  C  Sn48      1.0  0.72840  0.20105  0.09663  1.0000
  O  Te45      1.0  0.81937  0.29191  0.91510  1.0000
  O  Te46      1.0  0.79820  0.32484  0.33644  1.0000
  O  Te47      1.0  0.73124  0.26591  0.43906  1.0000
  O  Te48      1.0  0.70509  0.15990  0.01764  1.0000
  Mg  Mg23      1.0  0.77218  0.32557  0.50783  1.0000
  Mg  Mg24      1.0  0.77843  0.23220  0.84629  1.0000
  C  Sn49      1.0  0.92426  0.48979  0.17924  1.0000
  C   C169      1.0  0.96315  0.51918  0.25345  1.0000
  C  Sn50      1.0  0.96968  0.55178  0.36602  1.0000
  C  Sn51      1.0  0.93666  0.55504  0.40530  1.0000
  C   C170      1.0  0.89780  0.52565  0.33113  1.0000
  C  Sn52      1.0  0.89124  0.49305  0.21852  1.0000
  O  Te49      1.0  0.91844  0.45746  0.06706  1.0000
  O  Te50      1.0  0.00883  0.58080  0.43860  1.0000
  O  Te51      1.0  0.94252  0.58741  0.51758  1.0000
  O  Te52      1.0  0.85212  0.46404  0.14598  1.0000
  Mg  Mg25      1.0  0.00142  0.61924  0.58398  1.0000
  Mg  Mg26      1.0  0.85948  0.42558  0.00064  1.0000
  C  Sn53      1.0  0.54866  0.75396  0.19707  1.0000
  C   C171      1.0  0.52171  0.72783  0.27304  1.0000
  C  Sn54      1.0  0.49042  0.73274  0.31630  1.0000
  C  Sn55      1.0  0.48597  0.76441  0.28287  1.0000
  C   C172      1.0  0.51290  0.79051  0.20693  1.0000
  C  Sn56      1.0  0.54421  0.78563  0.16363  1.0000
  O  Te53      1.0  0.57972  0.74849  0.15487  1.0000
  O  Te54      1.0  0.46386  0.70625  0.39219  1.0000
  O  Te55      1.0  0.45488  0.76986  0.32514  1.0000
  O  Te56      1.0  0.57075  0.81209  0.08777  1.0000
  Mg  Mg27      1.0  0.42635  0.72602  0.42623  1.0000
  Mg  Mg28      1.0  0.60826  0.79234  0.05361  1.0000
  C  Sn57      1.0  0.46955  0.41437  0.36564  1.0000
  C   C173      1.0  0.49055  0.44419  0.29080  1.0000
  C  Sn58      1.0  0.50570  0.43488  0.16980  1.0000
  C  Sn59      1.0  0.49972  0.39493  0.12256  1.0000
  C   C174      1.0  0.47872  0.36514  0.19736  1.0000
  C  Sn60      1.0  0.46356  0.37442  0.31839  1.0000
  O  Te57      1.0  0.45466  0.42435  0.48631  1.0000
  O  Te58      1.0  0.52661  0.46520  0.09678  1.0000
  O  Te59      1.0  0.51463  0.38496  0.00178  1.0000
  O  Te60      1.0  0.44266  0.34412  0.39138  1.0000
  Mg  Mg29      1.0  0.58844  0.50979  0.93826  1.0000
  Mg  Mg30      1.0  0.42813  0.37256  0.54986  1.0000
  C  Sn61      1.0  0.45638  0.04321  0.15817  1.0000
  C   C175      1.0  0.48464  0.04153  0.24604  1.0000
  C  Sn62      1.0  0.51102  0.07533  0.35962  1.0000
  C  Sn63      1.0  0.50911  0.11155  0.38600  1.0000
  C   C176      1.0  0.48087  0.11320  0.29818  1.0000
  C  Sn64      1.0  0.45448  0.07942  0.18455  1.0000
  O  Te61      1.0  0.43030  0.00906  0.04524  1.0000
  O  Te62      1.0  0.53901  0.07293  0.44597  1.0000
  O  Te63      1.0  0.53522  0.14571  0.49904  1.0000
  O  Te64      1.0  0.42649  0.08181  0.09825  1.0000
  Mg  Mg31      1.0  0.56808  0.12752  0.58671  1.0000
  Mg  Mg32      1.0  0.44472  0.10031  0.95753  1.0000
  C  Sn65      1.0  0.76406  0.27563  0.78124  1.0000
  C   C177      1.0  0.79257  0.27101  0.71076  1.0000
  C  Sn66      1.0  0.78075  0.23510  0.60444  1.0000
  C  Sn67      1.0  0.73957  0.20315  0.56773  1.0000
  C   C178      1.0  0.71108  0.20777  0.63817  1.0000
  C  Sn68      1.0  0.72287  0.24367  0.74454  1.0000
  O  Te65      1.0  0.77655  0.31179  0.88719  1.0000
  O  Te66      1.0  0.80981  0.23119  0.53550  1.0000
  O  Te67      1.0  0.72709  0.16696  0.46169  1.0000
  O  Te68      1.0  0.69384  0.24760  0.81343  1.0000
  Mg  Mg33      1.0  0.77792  0.17611  0.39836  1.0000
  Mg  Mg34      1.0  0.72569  0.30266  0.95053  1.0000
  C  Sn69      1.0  0.50269  0.24311  0.07226  1.0000
  C   C179      1.0  0.47818  0.25959  0.09444  1.0000
  C  Sn70      1.0  0.44709  0.24344  0.17370  1.0000
  C  Sn71      1.0  0.44036  0.21014  0.23209  1.0000
  C   C180      1.0  0.46486  0.19369  0.20993  1.0000
  C  Sn72      1.0  0.49597  0.20982  0.13066  1.0000
  O  Te69      1.0  0.58094  0.33282  0.99269  1.0000
  O  Te70      1.0  0.42297  0.26041  0.19439  1.0000
  O  Te71      1.0  0.40942  0.19352  0.31171  1.0000
  O  Te72      1.0  0.52008  0.19286  0.10998  1.0000
  Mg  Mg35      1.0  0.38468  0.22716  0.31057  1.0000
  Mg  Mg36      1.0  0.60572  0.29918  0.99389  1.0000
