data_image0
_chemical_formula_structural       C3HC3HC10NSNH2CN2CH2C3HC3HC10NSNH2CN2CH2C3HC3HC10NSNH2CN2CH2C3HC3HC10NSNH2CN2CH2C2HC2HC2HC2HC3HC3HC10NSNH2CN2CH2C3HC3HC10NSNH2CN2CH2C3HC3HC10NSNH2CN2CH2C3HC3HC10NSNH2CN2CH2C2HC2HC2HC2HSnCSn2CSnTe4Mg2SnCSn2CSnTe4Mg2SnCSn2CSnTe4Mg2SnCSn2CSnTe4Mg2SnCSn2CSnTe4Mg2SnCSn2CSnTe4Mg2SnCSn2CSnTe4Mg2SnCSn2CSnTe4Mg2SnCSn2CSnTe4Mg2SnCSn2CSnTe4Mg2SnCSn2CSnTe4Mg2SnCSn2CSnTe4Mg2SnCSn2CSnTe4Mg2SnCSn2CSnTe4Mg2SnCSn2CSnTe4Mg2SnCSn2CSnTe4Mg2SnCSn2CSnTe4Mg2SnCSn2CSnTe4Mg2SnCSn2CSnTe4Mg2SnCSn2CSnTe4Mg2SnCSn2CSnTe4Mg2SnCSn2CSnTe4Mg2SnCSn2CSnTe4Mg2SnCSn2CSnTe4Mg2SnCSn2CSnTe4Mg2SnCSn2CSnTe4Mg2SnCSn2CSnTe4Mg2SnCSn2CSnTe4Mg2SnCSn2CSnTe4Mg2SnCSn2CSnTe4Mg2SnCSn2CSnTe4Mg2SnCSn2CSnTe4Mg2
_chemical_formula_sum              "C224 H56 N32 S8 Sn128 Te128 Mg64"
_cell_length_a       51.715
_cell_length_b       55.2782
_cell_length_c       8.03601
_cell_angle_alpha    89.6563
_cell_angle_beta     91.9006
_cell_angle_gamma    90.0425

_symmetry_space_group_name_H-M    'P1'
_space_group_IT_number       1

loop_
  _space_group_symop_operation_xyz
  'x, y, z'

loop_
  _atom_site_type_symbol
  _atom_site_label
  _atom_site_symmetry_multiplicity
  _atom_site_fract_x
  _atom_site_fract_y
  _atom_site_fract_z
  _atom_site_occupancy
  C   C1        1.0  0.52923  0.52282  0.06752  1.0000
  C   C2        1.0  0.48788  0.54406  0.05055  1.0000
  C   C3        1.0  0.44693  0.52195  0.10697  1.0000
  H   H1        1.0  0.47699  0.56064  0.02934  1.0000
  C   C4        1.0  0.02922  0.02265  0.95093  1.0000
  C   C5        1.0  0.98834  0.04388  0.98278  1.0000
  C   C6        1.0  0.94635  0.02197  0.93974  1.0000
  H   H2        1.0  0.97802  0.06043  0.00984  1.0000
  C   C7        1.0  0.19362  0.79937  0.93366  1.0000
  C   C8        1.0  0.21006  0.78367  0.95694  1.0000
  C   C9        1.0  0.22966  0.76644  0.98375  1.0000
  C   C10       1.0  0.25283  0.77244  0.07846  1.0000
  C   C11       1.0  0.27323  0.75482  0.10555  1.0000
  C   C12       1.0  0.27068  0.73078  0.04065  1.0000
  C   C13       1.0  0.24794  0.72575  0.94721  1.0000
  C   C14       1.0  0.22820  0.74291  0.91967  1.0000
  C   C15       1.0  0.28992  0.71330  0.07056  1.0000
  C   C16       1.0  0.30651  0.69781  0.09612  1.0000
  N   N1        1.0  0.29376  0.76343  0.19493  1.0000
  S   S1        1.0  0.28678  0.79145  0.23763  1.0000
  N   N2        1.0  0.25811  0.79411  0.14834  1.0000
  H   H3        1.0  0.24580  0.70784  0.89301  1.0000
  H   H4        1.0  0.21116  0.73804  0.84417  1.0000
  C   C17       1.0  0.12049  0.87586  0.85844  1.0000
  N   N3        1.0  0.12329  0.89543  0.94496  1.0000
  N   N4        1.0  0.37994  0.60410  0.09644  1.0000
  C   C18       1.0  0.38197  0.62358  0.18472  1.0000
  H   H5        1.0  0.89476  0.12626  0.76687  1.0000
  H   H6        1.0  0.60879  0.37418  0.26267  1.0000
  C   C19       1.0  0.47435  0.47734  0.08250  1.0000
  C   C20       1.0  0.51498  0.45615  0.04213  1.0000
  C   C21       1.0  0.55723  0.47823  0.07677  1.0000
  H   H7        1.0  0.52510  0.43950  0.01515  1.0000
  C   C22       1.0  0.97406  0.97725  0.95021  1.0000
  C   C23       1.0  0.01530  0.95587  0.97374  1.0000
  C   C24       1.0  0.05694  0.97811  0.93798  1.0000
  H   H8        1.0  0.02591  0.93909  0.99304  1.0000
  C   C25       1.0  0.80762  0.19928  0.94394  1.0000
  C   C26       1.0  0.79101  0.21459  0.96604  1.0000
  C   C27       1.0  0.77147  0.23161  0.99127  1.0000
  C   C28       1.0  0.74874  0.22515  0.07970  1.0000
  C   C29       1.0  0.72852  0.24269  0.10526  1.0000
  C   C30       1.0  0.73070  0.26699  0.04363  1.0000
  C   C31       1.0  0.75303  0.27245  0.95635  1.0000
  C   C32       1.0  0.77260  0.25542  0.93055  1.0000
  C   C33       1.0  0.71155  0.28441  0.06980  1.0000
  C   C34       1.0  0.69529  0.30010  0.09089  1.0000
  N   N5        1.0  0.70832  0.23367  0.18795  1.0000
  S   S2        1.0  0.71540  0.20539  0.22663  1.0000
  N   N6        1.0  0.74367  0.20310  0.14398  1.0000
  H   H9        1.0  0.75503  0.29062  0.90562  1.0000
  H   H10       1.0  0.78918  0.26067  0.85874  1.0000
  C   C35       1.0  0.88053  0.12356  0.86400  1.0000
  N   N7        1.0  0.87959  0.10423  0.95553  1.0000
  N   N8        1.0  0.62368  0.39555  0.06892  1.0000
  C   C36       1.0  0.62280  0.37654  0.16370  1.0000
  H   H11       1.0  0.10411  0.87266  0.77052  1.0000
  H   H12       1.0  0.39765  0.62689  0.27745  1.0000
  C   C37       1.0  0.52967  0.47781  0.06672  1.0000
  C   C38       1.0  0.48861  0.45589  0.04997  1.0000
  C   C39       1.0  0.44721  0.47735  0.10557  1.0000
  H   H13       1.0  0.47815  0.43904  0.02992  1.0000
  C   C40       1.0  0.02954  0.97768  0.94982  1.0000
  C   C41       1.0  0.98887  0.95567  0.97456  1.0000
  C   C42       1.0  0.94652  0.97730  0.93621  1.0000
  H   H14       1.0  0.97879  0.93877  0.99649  1.0000
  C   C43       1.0  0.19041  0.20354  0.93172  1.0000
  C   C44       1.0  0.20744  0.21863  0.95609  1.0000
  C   C45       1.0  0.22772  0.23508  0.98427  1.0000
  C   C46       1.0  0.25063  0.22807  0.07865  1.0000
  C   C47       1.0  0.27178  0.24491  0.10549  1.0000
  C   C48       1.0  0.27038  0.26905  0.03921  1.0000
  C   C49       1.0  0.24777  0.27508  0.94711  1.0000
  C   C50       1.0  0.22724  0.25876  0.92079  1.0000
  C   C51       1.0  0.29049  0.28576  0.06653  1.0000
  C   C52       1.0  0.30768  0.30068  0.09125  1.0000
  N   N9        1.0  0.29193  0.23547  0.19505  1.0000
  S   S3        1.0  0.28375  0.20766  0.23786  1.0000
  N   N10       1.0  0.25502  0.20613  0.14847  1.0000
  H   H15       1.0  0.24635  0.29308  0.89253  1.0000
  H   H16       1.0  0.21037  0.26447  0.84637  1.0000
  C   C53       1.0  0.11862  0.12612  0.84886  1.0000
  N   N11       1.0  0.12074  0.10704  0.94252  1.0000
  N   N12       1.0  0.38008  0.39524  0.10389  1.0000
  C   C54       1.0  0.38398  0.37429  0.17321  1.0000
  H   H17       1.0  0.89862  0.87063  0.77727  1.0000
  H   H18       1.0  0.60544  0.62804  0.26124  1.0000
  C   C55       1.0  0.47405  0.52231  0.08376  1.0000
  C   C56       1.0  0.51423  0.54430  0.04242  1.0000
  C   C57       1.0  0.55676  0.52293  0.07813  1.0000
  H   H19       1.0  0.52404  0.56112  0.01390  1.0000
  C   C58       1.0  0.97385  0.02224  0.95397  1.0000
  C   C59       1.0  0.01475  0.04411  0.97993  1.0000
  C   C60       1.0  0.05657  0.02275  0.93606  1.0000
  H   H20       1.0  0.02513  0.06090  0.00302  1.0000
  C   C61       1.0  0.80783  0.79951  0.91800  1.0000
  C   C62       1.0  0.79120  0.78418  0.94077  1.0000
  C   C63       1.0  0.77133  0.76760  0.96985  1.0000
  C   C64       1.0  0.74894  0.77493  0.05810  1.0000
  C   C65       1.0  0.72830  0.75801  0.08950  1.0000
  C   C66       1.0  0.72960  0.73352  0.03251  1.0000
  C   C67       1.0  0.75166  0.72717  0.94570  1.0000
  C   C68       1.0  0.77177  0.74354  0.91555  1.0000
  C   C69       1.0  0.70995  0.71673  0.06321  1.0000
  C   C70       1.0  0.69327  0.70157  0.08945  1.0000
  N   N13       1.0  0.70868  0.76774  0.17340  1.0000
  S   S4        1.0  0.71677  0.79590  0.20607  1.0000
  N   N14       1.0  0.74476  0.79726  0.11872  1.0000
  H   H21       1.0  0.75293  0.70880  0.89895  1.0000
  H   H22       1.0  0.78819  0.73759  0.84519  1.0000
  C   C71       1.0  0.88198  0.87477  0.85388  1.0000
  N   N15       1.0  0.87913  0.89512  0.93014  1.0000
  N   N16       1.0  0.62164  0.60667  0.07412  1.0000
  C   C72       1.0  0.62007  0.62571  0.16641  1.0000
  H   H23       1.0  0.10350  0.12848  0.75058  1.0000
  H   H24       1.0  0.40172  0.36944  0.24518  1.0000
  C   C73       1.0  0.43460  0.49956  0.12187  1.0000
  C   C74       1.0  0.51569  0.50018  0.07326  1.0000
  H   H25       1.0  0.41415  0.49945  0.14911  1.0000
  C   C75       1.0  0.56969  0.50070  0.08629  1.0000
  C   C76       1.0  0.48803  0.49993  0.08130  1.0000
  H   H26       1.0  0.59061  0.50091  0.10423  1.0000
  C   C77       1.0  0.93376  0.99961  0.92795  1.0000
  C   C78       1.0  0.01552  0.00006  0.94863  1.0000
  H   H27       1.0  0.91285  0.99959  0.90884  1.0000
  C   C79       1.0  0.06944  0.00052  0.92852  1.0000
  C   C80       1.0  0.98778  0.99984  0.94929  1.0000
  H   H28       1.0  0.09021  0.00064  0.91136  1.0000
  C   C81       1.0  0.52628  0.52257  0.57235  1.0000
  C   C82       1.0  0.48502  0.54393  0.55238  1.0000
  C   C83       1.0  0.44371  0.52183  0.60059  1.0000
  H   H29       1.0  0.47430  0.56061  0.53138  1.0000
  C   C84       1.0  0.02638  0.02188  0.44716  1.0000
  C   C85       1.0  0.98598  0.04362  0.48468  1.0000
  C   C86       1.0  0.94351  0.02220  0.44741  1.0000
  H   H30       1.0  0.97599  0.06033  0.51178  1.0000
  C   C87       1.0  0.19087  0.79904  0.42679  1.0000
  C   C88       1.0  0.20805  0.78409  0.45201  1.0000
  C   C89       1.0  0.22822  0.76755  0.48186  1.0000
  C   C90       1.0  0.25104  0.77430  0.57782  1.0000
  C   C91       1.0  0.27187  0.75719  0.60856  1.0000
  C   C92       1.0  0.27026  0.73303  0.54473  1.0000
  C   C93       1.0  0.24783  0.72732  0.44999  1.0000
  C   C94       1.0  0.22765  0.74390  0.41977  1.0000
  C   C95       1.0  0.28993  0.71594  0.57593  1.0000
  C   C96       1.0  0.30651  0.70038  0.60023  1.0000
  N   N17       1.0  0.29199  0.76641  0.69891  1.0000
  S   S5        1.0  0.28419  0.79437  0.73779  1.0000
  N   N18       1.0  0.25566  0.79621  0.64589  1.0000
  H   H31       1.0  0.24619  0.70929  0.39713  1.0000
  H   H32       1.0  0.21091  0.73837  0.34385  1.0000
  C   C97       1.0  0.11772  0.87523  0.33756  1.0000
  N   N19       1.0  0.11871  0.89366  0.43608  1.0000
  N   N20       1.0  0.37768  0.60480  0.58272  1.0000
  C   C98       1.0  0.37858  0.62302  0.68330  1.0000
  H   H33       1.0  0.89414  0.12772  0.27169  1.0000
  H   H34       1.0  0.60609  0.37396  0.76712  1.0000
  C   C99       1.0  0.47128  0.47720  0.58271  1.0000
  C   C100      1.0  0.51203  0.45596  0.54534  1.0000
  C   C101      1.0  0.55414  0.47794  0.58490  1.0000
  H   H35       1.0  0.52226  0.43945  0.51637  1.0000
  C   C102      1.0  0.97079  0.97719  0.45783  1.0000
  C   C103      1.0  0.01179  0.95535  0.47704  1.0000
  C   C104      1.0  0.05331  0.97694  0.42465  1.0000
  H   H36       1.0  0.02230  0.93856  0.49856  1.0000
  C   C105      1.0  0.80667  0.20088  0.44332  1.0000
  C   C106      1.0  0.78985  0.21596  0.46635  1.0000
  C   C107      1.0  0.77015  0.23280  0.49200  1.0000
  C   C108      1.0  0.74750  0.22627  0.58109  1.0000
  C   C109      1.0  0.72719  0.24373  0.60662  1.0000
  C   C110      1.0  0.72910  0.26796  0.54316  1.0000
  C   C111      1.0  0.75135  0.27348  0.45530  1.0000
  C   C112      1.0  0.77112  0.25659  0.43093  1.0000
  C   C113      1.0  0.70981  0.28526  0.56860  1.0000
  C   C114      1.0  0.69350  0.30084  0.59118  1.0000
  N   N21       1.0  0.70720  0.23468  0.69113  1.0000
  S   S6        1.0  0.71446  0.20647  0.73087  1.0000
  N   N22       1.0  0.74263  0.20426  0.64664  1.0000
  H   H37       1.0  0.75303  0.29157  0.40275  1.0000
  H   H38       1.0  0.78777  0.26186  0.35974  1.0000
  C   C115      1.0  0.87954  0.12498  0.36652  1.0000
  N   N23       1.0  0.87812  0.10558  0.45690  1.0000
  N   N24       1.0  0.62095  0.39556  0.57488  1.0000
  C   C116      1.0  0.62023  0.37651  0.66932  1.0000
  H   H39       1.0  0.10353  0.87345  0.23350  1.0000
  H   H40       1.0  0.39250  0.62439  0.78943  1.0000
  C   C117      1.0  0.52661  0.47760  0.57219  1.0000
  C   C118      1.0  0.48565  0.45575  0.55149  1.0000
  C   C119      1.0  0.44402  0.47713  0.60217  1.0000
  H   H41       1.0  0.47517  0.43897  0.53005  1.0000
  C   C120      1.0  0.02609  0.97690  0.44553  1.0000
  C   C121      1.0  0.98541  0.95550  0.48359  1.0000
  C   C122      1.0  0.94326  0.97751  0.44561  1.0000
  H   H42       1.0  0.97523  0.93884  0.51111  1.0000
  C   C123      1.0  0.19068  0.19994  0.44228  1.0000
  C   C124      1.0  0.20759  0.21519  0.46524  1.0000
  C   C125      1.0  0.22772  0.23185  0.49237  1.0000
  C   C126      1.0  0.25065  0.22511  0.58767  1.0000
  C   C127      1.0  0.27165  0.24212  0.61433  1.0000
  C   C128      1.0  0.27022  0.26612  0.54564  1.0000
  C   C129      1.0  0.24759  0.27191  0.45281  1.0000
  C   C130      1.0  0.22715  0.25545  0.42721  1.0000
  C   C131      1.0  0.29031  0.28292  0.57030  1.0000
  C   C132      1.0  0.30723  0.29823  0.59091  1.0000
  N   N25       1.0  0.29183  0.23288  0.70456  1.0000
  S   S7        1.0  0.28392  0.20501  0.74774  1.0000
  N   N26       1.0  0.25522  0.20324  0.65818  1.0000
  H   H43       1.0  0.24610  0.28986  0.39728  1.0000
  H   H44       1.0  0.21028  0.26097  0.35185  1.0000
  C   C133      1.0  0.11795  0.12357  0.34872  1.0000
  N   N27       1.0  0.11923  0.10471  0.44484  1.0000
  N   N28       1.0  0.37925  0.39326  0.58604  1.0000
  C   C134      1.0  0.38035  0.37447  0.68289  1.0000
  H   H45       1.0  0.89527  0.87181  0.26477  1.0000
  H   H46       1.0  0.60474  0.62696  0.76318  1.0000
  C   C135      1.0  0.47097  0.52219  0.58232  1.0000
  C   C136      1.0  0.51141  0.54410  0.54691  1.0000
  C   C137      1.0  0.55379  0.52262  0.58474  1.0000
  H   H47       1.0  0.52140  0.56093  0.52103  1.0000
  C   C138      1.0  0.97106  0.02217  0.45862  1.0000
  C   C139      1.0  0.01237  0.04350  0.47891  1.0000
  C   C140      1.0  0.05359  0.02158  0.42661  1.0000
  H   H48       1.0  0.02308  0.06015  0.50062  1.0000
  C   C141      1.0  0.80622  0.79927  0.42387  1.0000
  C   C142      1.0  0.78937  0.78419  0.44796  1.0000
  C   C143      1.0  0.76961  0.76744  0.47601  1.0000
  C   C144      1.0  0.74713  0.77421  0.56547  1.0000
  C   C145      1.0  0.72662  0.75697  0.59323  1.0000
  C   C146      1.0  0.72833  0.73263  0.53377  1.0000
  C   C147      1.0  0.75046  0.72683  0.44604  1.0000
  C   C148      1.0  0.77032  0.74356  0.41818  1.0000
  C   C149      1.0  0.70901  0.71544  0.56324  1.0000
  C   C150      1.0  0.69270  0.69991  0.58873  1.0000
  N   N29       1.0  0.70670  0.76623  0.67656  1.0000
  S   S8        1.0  0.71433  0.79439  0.71312  1.0000
  N   N30       1.0  0.74254  0.79630  0.62887  1.0000
  H   H49       1.0  0.75208  0.70862  0.39703  1.0000
  H   H50       1.0  0.78686  0.73797  0.34770  1.0000
  C   C151      1.0  0.88000  0.87472  0.35470  1.0000
  N   N31       1.0  0.87783  0.89425  0.44128  1.0000
  N   N32       1.0  0.62008  0.60535  0.57435  1.0000
  C   C152      1.0  0.61914  0.62439  0.66705  1.0000
  H   H51       1.0  0.10358  0.12570  0.24568  1.0000
  H   H52       1.0  0.39427  0.37264  0.78878  1.0000
  C   C153      1.0  0.43129  0.49940  0.61288  1.0000
  C   C154      1.0  0.51265  0.49998  0.57686  1.0000
  H   H53       1.0  0.41061  0.49931  0.63344  1.0000
  C   C155      1.0  0.56664  0.50036  0.59443  1.0000
  C   C156      1.0  0.48495  0.49979  0.58209  1.0000
  H   H54       1.0  0.58756  0.50053  0.61303  1.0000
  C   C157      1.0  0.93067  0.99993  0.43786  1.0000
  C   C158      1.0  0.01241  0.99947  0.44719  1.0000
  H   H55       1.0  0.90974  0.99999  0.42011  1.0000
  C   C159      1.0  0.06599  0.99924  0.41275  1.0000
  C   C160      1.0  0.98472  0.99961  0.45327  1.0000
  H   H56       1.0  0.08658  0.99924  0.38944  1.0000
  C  Sn1       1.0  0.43010  0.58441  0.16278  1.0000
  C   C161      1.0  0.40585  0.58732  0.08321  1.0000
  C  Sn2       1.0  0.39198  0.56721  0.02510  1.0000
  C  Sn3       1.0  0.40255  0.54370  0.04707  1.0000
  C   C162      1.0  0.42678  0.54080  0.12662  1.0000
  C  Sn4       1.0  0.44067  0.56090  0.18475  1.0000
  O  Te1       1.0  0.44362  0.60477  0.21988  1.0000
  O  Te2       1.0  0.37293  0.56971  0.94589  1.0000
  O  Te3       1.0  0.39416  0.52247  0.98988  1.0000
  O  Te4       1.0  0.46486  0.55754  0.26394  1.0000
  Mg  Mg1       1.0  0.36193  0.53634  0.88987  1.0000
  Mg  Mg2       1.0  0.47587  0.59089  0.32008  1.0000
  C  Sn5       1.0  0.92103  0.07976  0.80653  1.0000
  C   C163      1.0  0.89813  0.08284  0.89148  1.0000
  C  Sn6       1.0  0.88643  0.06761  0.01799  1.0000
  C  Sn7       1.0  0.90314  0.04804  0.06056  1.0000
  C   C164      1.0  0.93118  0.04410  0.97566  1.0000
  C  Sn8       1.0  0.93773  0.06019  0.84911  1.0000
  O  Te5       1.0  0.92718  0.09608  0.68049  1.0000
  O  Te6       1.0  0.86343  0.07106  0.10111  1.0000
  O  Te7       1.0  0.89696  0.03172  0.18672  1.0000
  O  Te8       1.0  0.96072  0.05675  0.76604  1.0000
  Mg  Mg3       1.0  0.86350  0.04402  0.26379  1.0000
  Mg  Mg4       1.0  0.96067  0.08379  0.60340  1.0000
  C  Sn9       1.0  0.17033  0.84529  0.02207  1.0000
  C   C165      1.0  0.17352  0.82098  0.95872  1.0000
  C  Sn10      1.0  0.15479  0.81542  0.83563  1.0000
  C  Sn11      1.0  0.13765  0.83368  0.77450  1.0000
  C   C166      1.0  0.13962  0.85711  0.83783  1.0000
  C  Sn12      1.0  0.15835  0.86268  0.96095  1.0000
  O  Te9       1.0  0.18921  0.85044  0.14509  1.0000
  O  Te10      1.0  0.15320  0.79185  0.77426  1.0000
  O  Te11      1.0  0.11877  0.82852  0.65140  1.0000
  O  Te12      1.0  0.15479  0.88710  0.02229  1.0000
  Mg  Mg5       1.0  0.12426  0.79375  0.60713  1.0000
  Mg  Mg6       1.0  0.18373  0.88524  0.18935  1.0000
  C  Sn13      1.0  0.35724  0.68345  0.17665  1.0000
  C   C167      1.0  0.33298  0.68191  0.09546  1.0000
  C  Sn14      1.0  0.32200  0.65937  0.05932  1.0000
  C  Sn15      1.0  0.33553  0.63792  0.10537  1.0000
  C   C168      1.0  0.35977  0.63947  0.18653  1.0000
  C  Sn16      1.0  0.37078  0.66199  0.22270  1.0000
  O  Te13      1.0  0.36785  0.70617  0.21155  1.0000
  O  Te14      1.0  0.30288  0.65743  0.97801  1.0000
  O  Te15      1.0  0.32490  0.61519  0.07039  1.0000
  O  Te16      1.0  0.39503  0.66308  0.30399  1.0000
  Mg  Mg7       1.0  0.29648  0.62224  0.95771  1.0000
  Mg  Mg8       1.0  0.40144  0.69826  0.32442  1.0000
  C  Sn17      1.0  0.57416  0.41567  0.13027  1.0000
  C   C169      1.0  0.59757  0.41260  0.05101  1.0000
  C  Sn18      1.0  0.61642  0.43179  0.99450  1.0000
  C  Sn19      1.0  0.60137  0.45628  0.01780  1.0000
  C   C170      1.0  0.57798  0.45933  0.09704  1.0000
  C  Sn20      1.0  0.56426  0.43929  0.15356  1.0000
  O  Te17      1.0  0.56080  0.39536  0.18576  1.0000
  O  Te18      1.0  0.63978  0.42827  0.91557  1.0000
  O  Te19      1.0  0.61991  0.47572  0.96222  1.0000
  O  Te20      1.0  0.54092  0.44280  0.23247  1.0000
  Mg  Mg9       1.0  0.65089  0.46162  0.86196  1.0000
  Mg  Mg10      1.0  0.52980  0.40946  0.28620  1.0000
  C  Sn21      1.0  0.10640  0.93732  0.07628  1.0000
  C   C171      1.0  0.10816  0.91530  0.98369  1.0000
  C  Sn22      1.0  0.09034  0.91461  0.84929  1.0000
  C  Sn23      1.0  0.07561  0.93551  0.80648  1.0000
  C   C172      1.0  0.07901  0.95665  0.89902  1.0000
  C  Sn24      1.0  0.09167  0.95822  0.03346  1.0000
  O  Te21      1.0  0.12432  0.93760  0.21013  1.0000
  O  Te22      1.0  0.08728  0.89326  0.75862  1.0000
  O  Te23      1.0  0.05768  0.93522  0.67251  1.0000
  O  Te24      1.0  0.09473  0.97956  0.12409  1.0000
  Mg  Mg11      1.0  0.06047  0.90185  0.58688  1.0000
  Mg  Mg12      1.0  0.12155  0.97099  0.29579  1.0000
  C  Sn25      1.0  0.82306  0.15577  0.03851  1.0000
  C   C173      1.0  0.82871  0.17822  0.97059  1.0000
  C  Sn26      1.0  0.84536  0.18379  0.84242  1.0000
  C  Sn27      1.0  0.86184  0.16566  0.78075  1.0000
  C   C174      1.0  0.86133  0.14235  0.84863  1.0000
  C  Sn28      1.0  0.84469  0.13677  0.97684  1.0000
  O  Te25      1.0  0.80626  0.15061  0.16657  1.0000
  O  Te26      1.0  0.84552  0.20723  0.77655  1.0000
  O  Te27      1.0  0.87864  0.17083  0.65259  1.0000
  O  Te28      1.0  0.83937  0.11421  0.04268  1.0000
  Mg  Mg13      1.0  0.87179  0.20541  0.60340  1.0000
  Mg  Mg14      1.0  0.81310  0.11601  0.21576  1.0000
  C  Sn29      1.0  0.64576  0.31607  0.17158  1.0000
  C   C175      1.0  0.66880  0.31641  0.08546  1.0000
  C  Sn30      1.0  0.67990  0.33837  0.03893  1.0000
  C  Sn31      1.0  0.66773  0.36046  0.07941  1.0000
  C   C176      1.0  0.64471  0.36011  0.16549  1.0000
  C  Sn32      1.0  0.63359  0.33815  0.21205  1.0000
  O  Te29      1.0  0.63501  0.29390  0.21686  1.0000
  O  Te30      1.0  0.70809  0.33739  0.95286  1.0000
  O  Te31      1.0  0.67850  0.38263  0.03404  1.0000
  O  Te32      1.0  0.61057  0.33826  0.29809  1.0000
  Mg  Mg15      1.0  0.71523  0.37222  0.91828  1.0000
  Mg  Mg16      1.0  0.60342  0.30344  0.33281  1.0000
  C  Sn33      1.0  0.39890  0.45466  0.05787  1.0000
  C   C177      1.0  0.42355  0.45734  0.13218  1.0000
  C  Sn34      1.0  0.43724  0.43713  0.19198  1.0000
  C  Sn35      1.0  0.42607  0.41377  0.17711  1.0000
  C   C178      1.0  0.40144  0.41111  0.10281  1.0000
  C  Sn36      1.0  0.38773  0.43130  0.04300  1.0000
  O  Te33      1.0  0.39072  0.47424  0.99895  1.0000
  O  Te34      1.0  0.46184  0.44026  0.26585  1.0000
  O  Te35      1.0  0.43943  0.39332  0.23611  1.0000
  O  Te36      1.0  0.36830  0.42732  0.96915  1.0000
  Mg  Mg17      1.0  0.47237  0.40686  0.32697  1.0000
  Mg  Mg18      1.0  0.35776  0.46070  0.90790  1.0000
  C  Sn37      1.0  0.93078  0.93164  0.79450  1.0000
  C   C179      1.0  0.92737  0.95344  0.87810  1.0000
  C  Sn38      1.0  0.90431  0.95597  0.00385  1.0000
  C  Sn39      1.0  0.88949  0.93540  0.04703  1.0000
  C   C180      1.0  0.89806  0.91274  0.96347  1.0000
  C  Sn40      1.0  0.91596  0.91107  0.83767  1.0000
  O  Te37      1.0  0.94880  0.93039  0.66919  1.0000
  O  Te38      1.0  0.90124  0.97797  0.08562  1.0000
  O  Te39      1.0  0.87146  0.93666  0.17244  1.0000
  O  Te40      1.0  0.91904  0.88909  0.75595  1.0000
  Mg  Mg19      1.0  0.87427  0.97062  0.24772  1.0000
  Mg  Mg20      1.0  0.94601  0.89641  0.59390  1.0000
  C  Sn41      1.0  0.15625  0.14900  0.01712  1.0000
  C   C181      1.0  0.13804  0.14785  0.92461  1.0000
  C  Sn42      1.0  0.13245  0.16598  0.80703  1.0000
  C  Sn43      1.0  0.15060  0.18478  0.78130  1.0000
  C   C182      1.0  0.17394  0.18505  0.87375  1.0000
  C  Sn44      1.0  0.17955  0.16693  0.99138  1.0000
  O  Te41      1.0  0.16143  0.13070  0.13399  1.0000
  O  Te42      1.0  0.10896  0.16532  0.71609  1.0000
  O  Te43      1.0  0.14539  0.20309  0.66431  1.0000
  O  Te44      1.0  0.19787  0.16845  0.08226  1.0000
  Mg  Mg21      1.0  0.11077  0.19431  0.57109  1.0000
  Mg  Mg22      1.0  0.19609  0.13946  0.22722  1.0000
  C  Sn45      1.0  0.33223  0.35952  0.11120  1.0000
  C   C183      1.0  0.35715  0.35747  0.18259  1.0000
  C  Sn46      1.0  0.36832  0.33472  0.20948  1.0000
  C  Sn47      1.0  0.35430  0.31358  0.16399  1.0000
  C   C184      1.0  0.32939  0.31564  0.09262  1.0000
  C  Sn48      1.0  0.31821  0.33838  0.06570  1.0000
  O  Te45      1.0  0.32145  0.38245  0.08544  1.0000
  O  Te46      1.0  0.39326  0.33313  0.28109  1.0000
  O  Te47      1.0  0.36510  0.29064  0.18981  1.0000
  O  Te48      1.0  0.29844  0.33911  0.99412  1.0000
  Mg  Mg23      1.0  0.39964  0.29783  0.29114  1.0000
  Mg  Mg24      1.0  0.29204  0.37440  0.98393  1.0000
  C  Sn49      1.0  0.59932  0.54751  0.03496  1.0000
  C   C185      1.0  0.57523  0.54432  0.10576  1.0000
  C  Sn50      1.0  0.56118  0.56426  0.15860  1.0000
  C  Sn51      1.0  0.57142  0.58790  0.14022  1.0000
  C   C186      1.0  0.59549  0.59109  0.06943  1.0000
  C  Sn52      1.0  0.60956  0.57115  0.01657  1.0000
  O  Te49      1.0  0.61818  0.52644  0.98299  1.0000
  O  Te50      1.0  0.53714  0.56061  0.22907  1.0000
  O  Te51      1.0  0.55769  0.60811  0.19226  1.0000
  O  Te52      1.0  0.63874  0.57393  0.94611  1.0000
  Mg  Mg25      1.0  0.52578  0.59385  0.28073  1.0000
  Mg  Mg26      1.0  0.65010  0.54071  0.89434  1.0000
  C  Sn53      1.0  0.11840  0.05790  0.98639  1.0000
  C   C187      1.0  0.11334  0.07990  0.90510  1.0000
  C  Sn54      1.0  0.08841  0.08534  0.84400  1.0000
  C  Sn55      1.0  0.06809  0.06845  0.86466  1.0000
  C   C188      1.0  0.07314  0.04647  0.94593  1.0000
  C  Sn56      1.0  0.09292  0.04188  0.00705  1.0000
  O  Te53      1.0  0.13832  0.05371  0.04648  1.0000
  O  Te54      1.0  0.08383  0.10744  0.76312  1.0000
  O  Te55      1.0  0.04300  0.07352  0.80448  1.0000
  O  Te56      1.0  0.09750  0.01979  0.08791  1.0000
  Mg  Mg27      1.0  0.04642  0.10604  0.70312  1.0000
  Mg  Mg28      1.0  0.13490  0.02118  0.14803  1.0000
  C  Sn57      1.0  0.83768  0.85486  0.99973  1.0000
  C   C189      1.0  0.86135  0.85410  0.92084  1.0000
  C  Sn58      1.0  0.86677  0.83530  0.81201  1.0000
  C  Sn59      1.0  0.84814  0.81687  0.78132  1.0000
  C   C190      1.0  0.82450  0.81764  0.86016  1.0000
  C  Sn60      1.0  0.81906  0.83643  0.96904  1.0000
  O  Te57      1.0  0.82752  0.87469  0.10804  1.0000
  O  Te58      1.0  0.89056  0.83493  0.73464  1.0000
  O  Te59      1.0  0.85317  0.79790  0.67291  1.0000
  O  Te60      1.0  0.79013  0.83768  0.04636  1.0000
  Mg  Mg29      1.0  0.88836  0.80533  0.59734  1.0000
  Mg  Mg30      1.0  0.79231  0.86727  0.18361  1.0000
  C  Sn61      1.0  0.66987  0.64226  0.09011  1.0000
  C   C191      1.0  0.64634  0.64307  0.17059  1.0000
  C  Sn62      1.0  0.63550  0.66526  0.21274  1.0000
  C  Sn63      1.0  0.64844  0.68709  0.17353  1.0000
  C   C192      1.0  0.67195  0.68627  0.09306  1.0000
  C  Sn64      1.0  0.68280  0.66410  0.05090  1.0000
  O  Te61      1.0  0.68035  0.61988  0.04914  1.0000
  O  Te62      1.0  0.61197  0.66560  0.29321  1.0000
  O  Te63      1.0  0.63794  0.70948  0.21457  1.0000
  O  Te64      1.0  0.71147  0.66287  0.97045  1.0000
  Mg  Mg31      1.0  0.60547  0.70057  0.32338  1.0000
  Mg  Mg32      1.0  0.71799  0.62792  0.94014  1.0000
  C  Sn65      1.0  0.38631  0.55652  0.54401  1.0000
  C   C193      1.0  0.39073  0.57875  0.62192  1.0000
  C  Sn66      1.0  0.41549  0.58487  0.68264  1.0000
  C  Sn67      1.0  0.43626  0.56844  0.66502  1.0000
  C   C194      1.0  0.43183  0.54623  0.58713  1.0000
  C  Sn68      1.0  0.40708  0.54009  0.52639  1.0000
  O  Te65      1.0  0.36140  0.55078  0.48424  1.0000
  O  Te66      1.0  0.41943  0.60719  0.76013  1.0000
  O  Te67      1.0  0.46117  0.57420  0.72488  1.0000
  O  Te68      1.0  0.40313  0.51779  0.44892  1.0000
  Mg  Mg33      1.0  0.45684  0.60677  0.82106  1.0000
  Mg  Mg34      1.0  0.36573  0.51820  0.38787  1.0000
  C  Sn69      1.0  0.91923  0.08040  0.31205  1.0000
  C   C195      1.0  0.89652  0.08410  0.39790  1.0000
  C  Sn70      1.0  0.88961  0.06819  0.52462  1.0000
  C  Sn71      1.0  0.90573  0.04817  0.56650  1.0000
  C   C196      1.0  0.92843  0.04448  0.48070  1.0000
  C  Sn72      1.0  0.93536  0.06038  0.35392  1.0000
  O  Te69      1.0  0.92577  0.09653  0.18581  1.0000
  O  Te70      1.0  0.86680  0.07226  0.60865  1.0000
  O  Te71      1.0  0.89918  0.03203  0.69285  1.0000
  O  Te72      1.0  0.95815  0.05632  0.26995  1.0000
  Mg  Mg35      1.0  0.86620  0.04523  0.77127  1.0000
  Mg  Mg36      1.0  0.95878  0.08334  0.10737  1.0000
  C  Sn73      1.0  0.14946  0.82020  0.24682  1.0000
  C   C197      1.0  0.17167  0.81962  0.35070  1.0000
  C  Sn74      1.0  0.17536  0.83686  0.47566  1.0000
  C  Sn75      1.0  0.15646  0.85505  0.49730  1.0000
  C   C198      1.0  0.13427  0.85562  0.39348  1.0000
  C  Sn76      1.0  0.13056  0.83839  0.26847  1.0000
  O  Te73      1.0  0.14617  0.80278  0.12272  1.0000
  O  Te74      1.0  0.19772  0.83591  0.57794  1.0000
  O  Te75      1.0  0.15977  0.87247  0.62153  1.0000
  O  Te76      1.0  0.10821  0.83932  0.16625  1.0000
  Mg  Mg37      1.0  0.19343  0.86363  0.72947  1.0000
  Mg  Mg38      1.0  0.11247  0.81161  0.01474  1.0000
  C  Sn77      1.0  0.35781  0.66755  0.78764  1.0000
  C   C199      1.0  0.35691  0.64481  0.71252  1.0000
  C  Sn78      1.0  0.34060  0.64073  0.57346  1.0000
  C  Sn79      1.0  0.32488  0.65977  0.50804  1.0000
  C   C200      1.0  0.32578  0.68248  0.58313  1.0000
  C  Sn80      1.0  0.34208  0.68659  0.72222  1.0000
  O  Te77      1.0  0.37426  0.67122  0.92655  1.0000
  O  Te78      1.0  0.34003  0.61784  0.50053  1.0000
  O  Te79      1.0  0.30842  0.65607  0.36902  1.0000
  O  Te80      1.0  0.34266  0.70945  0.79512  1.0000
  Mg  Mg39      1.0  0.31448  0.62175  0.31335  1.0000
  Mg  Mg40      1.0  0.36821  0.70557  0.98224  1.0000
  C  Sn81      1.0  0.57133  0.41535  0.63704  1.0000
  C   C201      1.0  0.59486  0.41253  0.55876  1.0000
  C  Sn82      1.0  0.60850  0.43275  0.50418  1.0000
  C  Sn83      1.0  0.59841  0.45627  0.52845  1.0000
  C   C202      1.0  0.57490  0.45908  0.60671  1.0000
  C  Sn84      1.0  0.56125  0.43888  0.66131  1.0000
  O  Te81      1.0  0.55803  0.39489  0.69061  1.0000
  O  Te82      1.0  0.63198  0.42947  0.42619  1.0000
  O  Te83      1.0  0.61173  0.47674  0.47480  1.0000
  O  Te84      1.0  0.53778  0.44214  0.73928  1.0000
  Mg  Mg41      1.0  0.64293  0.46296  0.37520  1.0000
  Mg  Mg42      1.0  0.52682  0.40867  0.79039  1.0000
  C  Sn85      1.0  0.05999  0.92595  0.37117  1.0000
  C   C203      1.0  0.06525  0.94843  0.44334  1.0000
  C  Sn86      1.0  0.09039  0.95434  0.49773  1.0000
  C  Sn87      1.0  0.11070  0.93743  0.47951  1.0000
  C   C204      1.0  0.10543  0.91496  0.40735  1.0000
  C  Sn88      1.0  0.08029  0.90904  0.35295  1.0000
  O  Te85      1.0  0.03471  0.92043  0.31768  1.0000
  O  Te86      1.0  0.09517  0.97693  0.56954  1.0000
  O  Te87      1.0  0.13599  0.94297  0.53308  1.0000
  O  Te88      1.0  0.07551  0.88646  0.28115  1.0000
  Mg  Mg43      1.0  0.13281  0.97605  0.62302  1.0000
  Mg  Mg44      1.0  0.03788  0.88733  0.22755  1.0000
  C  Sn89      1.0  0.82707  0.15645  0.53814  1.0000
  C   C205      1.0  0.82774  0.17979  0.47061  1.0000
  C  Sn90      1.0  0.84456  0.18533  0.34337  1.0000
  C  Sn91      1.0  0.86105  0.16716  0.28227  1.0000
  C   C206      1.0  0.86037  0.14384  0.34977  1.0000
  C  Sn92      1.0  0.84356  0.13828  0.47704  1.0000
  O  Te89      1.0  0.81010  0.15131  0.66526  1.0000
  O  Te90      1.0  0.84489  0.20879  0.27787  1.0000
  O  Te91      1.0  0.87803  0.17232  0.15505  1.0000
  O  Te92      1.0  0.84322  0.11483  0.54251  1.0000
  Mg  Mg45      1.0  0.87137  0.20693  0.10604  1.0000
  Mg  Mg46      1.0  0.81674  0.11667  0.71427  1.0000
  C  Sn93      1.0  0.68063  0.34987  0.58389  1.0000
  C   C207      1.0  0.67943  0.32608  0.64304  1.0000
  C  Sn94      1.0  0.65611  0.31655  0.69701  1.0000
  C  Sn95      1.0  0.63351  0.33109  0.69167  1.0000
  C   C208      1.0  0.63471  0.35486  0.63253  1.0000
  C  Sn96      1.0  0.65803  0.36441  0.57854  1.0000
  O  Te93      1.0  0.70415  0.35903  0.53055  1.0000
  O  Te94      1.0  0.65540  0.29272  0.75569  1.0000
  O  Te95      1.0  0.60998  0.32192  0.74508  1.0000
  O  Te96      1.0  0.65875  0.38822  0.51987  1.0000
  Mg  Mg47      1.0  0.61879  0.28843  0.81448  1.0000
  Mg  Mg48      1.0  0.69534  0.39253  0.46097  1.0000
  C  Sn97      1.0  0.39411  0.43680  0.47003  1.0000
  C   C209      1.0  0.39837  0.41490  0.55426  1.0000
  C  Sn98      1.0  0.41716  0.41325  0.68279  1.0000
  C  Sn99      1.0  0.43198  0.43393  0.72817  1.0000
  C   C210      1.0  0.42770  0.45581  0.64399  1.0000
  C  Sn100     1.0  0.40893  0.45748  0.51541  1.0000
  O  Te97      1.0  0.37523  0.43804  0.34193  1.0000
  O  Te98      1.0  0.42108  0.39116  0.76514  1.0000
  O  Te99      1.0  0.45087  0.43268  0.85638  1.0000
  O  Te100     1.0  0.40500  0.47956  0.43311  1.0000
  Mg  Mg49      1.0  0.44903  0.39857  0.93138  1.0000
  Mg  Mg50      1.0  0.37704  0.47217  0.26691  1.0000
  C  Sn101     1.0  0.92704  0.91506  0.38385  1.0000
  C   C211      1.0  0.90324  0.91156  0.45794  1.0000
  C  Sn102     1.0  0.88918  0.93132  0.51374  1.0000
  C  Sn103     1.0  0.89910  0.95507  0.49500  1.0000
  C   C212      1.0  0.92288  0.95856  0.42092  1.0000
  C  Sn104     1.0  0.93696  0.93881  0.36511  1.0000
  O  Te101     1.0  0.94076  0.89504  0.32898  1.0000
  O  Te102     1.0  0.86544  0.92737  0.58747  1.0000
  O  Te103     1.0  0.88535  0.97509  0.54996  1.0000
  O  Te104     1.0  0.96068  0.94275  0.29140  1.0000
  Mg  Mg51      1.0  0.85393  0.96044  0.64231  1.0000
  Mg  Mg52      1.0  0.97220  0.90970  0.23644  1.0000
  C  Sn105     1.0  0.17795  0.15111  0.45662  1.0000
  C   C213      1.0  0.17649  0.17465  0.39261  1.0000
  C  Sn106     1.0  0.15305  0.18373  0.32749  1.0000
  C  Sn107     1.0  0.13059  0.16899  0.32642  1.0000
  C   C214      1.0  0.13205  0.14546  0.39042  1.0000
  C  Sn108     1.0  0.15549  0.13636  0.45554  1.0000
  O  Te105     1.0  0.20159  0.14240  0.52110  1.0000
  O  Te106     1.0  0.15207  0.20732  0.26414  1.0000
  O  Te107     1.0  0.10694  0.17771  0.26185  1.0000
  O  Te108     1.0  0.15647  0.11279  0.51889  1.0000
  Mg  Mg53      1.0  0.11540  0.21102  0.18984  1.0000
  Mg  Mg54      1.0  0.19313  0.10908  0.59330  1.0000
  C  Sn109     1.0  0.32944  0.34126  0.48500  1.0000
  C   C215      1.0  0.32915  0.31868  0.56395  1.0000
  C  Sn110     1.0  0.34475  0.31434  0.70621  1.0000
  C  Sn111     1.0  0.36097  0.33297  0.77100  1.0000
  C   C216      1.0  0.36126  0.35554  0.69209  1.0000
  C  Sn112     1.0  0.34566  0.35990  0.54979  1.0000
  O  Te109     1.0  0.31369  0.34520  0.34294  1.0000
  O  Te110     1.0  0.34414  0.29160  0.78293  1.0000
  O  Te111     1.0  0.37674  0.32901  0.91318  1.0000
  O  Te112     1.0  0.34627  0.38261  0.47311  1.0000
  Mg  Mg55      1.0  0.36911  0.29504  0.97346  1.0000
  Mg  Mg56      1.0  0.32130  0.37920  0.28264  1.0000
  C  Sn113     1.0  0.60161  0.54562  0.53789  1.0000
  C   C217      1.0  0.57761  0.54289  0.61080  1.0000
  C  Sn114     1.0  0.56413  0.56311  0.66496  1.0000
  C  Sn115     1.0  0.57484  0.58654  0.64576  1.0000
  C   C218      1.0  0.59882  0.58927  0.57287  1.0000
  C  Sn116     1.0  0.61232  0.56906  0.51869  1.0000
  O  Te113     1.0  0.61475  0.52516  0.48464  1.0000
  O  Te114     1.0  0.54017  0.55992  0.73753  1.0000
  O  Te115     1.0  0.56168  0.60701  0.69909  1.0000
  O  Te116     1.0  0.63626  0.57224  0.44614  1.0000
  Mg  Mg57      1.0  0.52968  0.59337  0.79031  1.0000
  Mg  Mg58      1.0  0.64677  0.53881  0.39323  1.0000
  C  Sn117     1.0  0.06972  0.08425  0.37207  1.0000
  C   C219      1.0  0.09381  0.08739  0.45304  1.0000
  C  Sn118     1.0  0.10798  0.06738  0.51123  1.0000
  C  Sn119     1.0  0.09787  0.04374  0.48790  1.0000
  C   C220      1.0  0.07380  0.04061  0.40694  1.0000
  C  Sn120     1.0  0.05961  0.06061  0.34874  1.0000
  O  Te117     1.0  0.05588  0.10452  0.31491  1.0000
  O  Te118     1.0  0.13202  0.07098  0.59186  1.0000
  O  Te119     1.0  0.11173  0.02348  0.54514  1.0000
  O  Te120     1.0  0.03559  0.05703  0.26813  1.0000
  Mg  Mg59      1.0  0.14357  0.03767  0.64736  1.0000
  Mg  Mg60      1.0  0.02403  0.09032  0.21250  1.0000
  C  Sn121     1.0  0.81986  0.84786  0.44191  1.0000
  C   C221      1.0  0.82068  0.82447  0.37725  1.0000
  C  Sn122     1.0  0.84378  0.81516  0.31897  1.0000
  C  Sn123     1.0  0.86652  0.82952  0.32556  1.0000
  C   C222      1.0  0.86569  0.85289  0.39021  1.0000
  C  Sn124     1.0  0.84261  0.86222  0.44849  1.0000
  O  Te121     1.0  0.79656  0.85680  0.49947  1.0000
  O  Te122     1.0  0.84412  0.79173  0.25483  1.0000
  O  Te123     1.0  0.88983  0.82055  0.26792  1.0000
  O  Te124     1.0  0.84226  0.88563  0.51263  1.0000
  Mg  Mg61      1.0  0.88053  0.78760  0.19172  1.0000
  Mg  Mg62      1.0  0.80586  0.88977  0.57585  1.0000
  C  Sn125     1.0  0.66935  0.64050  0.59268  1.0000
  C   C223      1.0  0.64568  0.64150  0.67125  1.0000
  C  Sn126     1.0  0.63483  0.66378  0.71095  1.0000
  C  Sn127     1.0  0.64791  0.68551  0.67121  1.0000
  C   C224      1.0  0.67157  0.68451  0.59266  1.0000
  C  Sn128     1.0  0.68243  0.66223  0.55293  1.0000
  O  Te125     1.0  0.67984  0.61802  0.55413  1.0000
  O  Te126     1.0  0.61114  0.66432  0.78955  1.0000
  O  Te127     1.0  0.63740  0.70800  0.70983  1.0000
  O  Te128     1.0  0.70611  0.66168  0.47436  1.0000
  Mg  Mg63      1.0  0.60469  0.69935  0.81671  1.0000
  Mg  Mg64      1.0  0.71257  0.62666  0.44706  1.0000
