data_image0
_chemical_formula_structural       C9H5C9H5C3N2CH2C3HC3HC8H4CN2CH2C9H5C3HC14H8CN2CH2C9H5C9H5C8H4CN2CH2C2HC2HC2HC2HC3HC9H5C8H4CN2CH2C3HC3HC8H4CN2CH2C9H5C9H5C3N2CH2C9H5C9H5C3N2CH2C2HC2HC2HC2HC2Sn2C2HTe2HMgC2Sn2C2HTe2HMgC2Sn2C2HTe2HMgC2Sn2C2HTe2HMgC2Sn2C2HTe2HMgC2Sn2C2HTe2HMgC2Sn2C2HTe2HMgC2Sn2C2HTe2HMgC2Sn2C2HTe2HMgC2Sn2C2HTe2HMgC2Sn2C2HTe2HMgC2Sn2C2HTe2HMgC2Sn2C2HTe2HMgC2Sn2C2HTe2HMgC2Sn2C2HTe2HMgC2Sn2C2HTe2HMg
_chemical_formula_sum              "C256 H136 N16 Sn32 Te32 Mg16"
_cell_length_a       41.9761
_cell_length_b       45.7138
_cell_length_c       8.10521
_cell_angle_alpha    89.8665
_cell_angle_beta     88.6932
_cell_angle_gamma    90.0134

_symmetry_space_group_name_H-M    'P1'
_space_group_IT_number       1

loop_
  _space_group_symop_operation_xyz
  'x, y, z'

loop_
  _atom_site_type_symbol
  _atom_site_label
  _atom_site_symmetry_multiplicity
  _atom_site_fract_x
  _atom_site_fract_y
  _atom_site_fract_z
  _atom_site_occupancy
  C   C1        1.0  0.53447  0.52719  0.96655  1.0000
  C   C2        1.0  0.48383  0.55244  0.93357  1.0000
  C   C3        1.0  0.43252  0.52550  0.98057  1.0000
  C   C4        1.0  0.41235  0.55193  0.98065  1.0000
  C   C5        1.0  0.38311  0.55121  0.89887  1.0000
  C   C6        1.0  0.36287  0.57521  0.89903  1.0000
  C   C7        1.0  0.37086  0.60121  0.98102  1.0000
  C   C8        1.0  0.40032  0.60231  0.06103  1.0000
  C   C9        1.0  0.42036  0.57808  0.06201  1.0000
  H   H1        1.0  0.47085  0.57238  0.90702  1.0000
  H   H2        1.0  0.37689  0.53179  0.82936  1.0000
  H   H3        1.0  0.34058  0.57474  0.83339  1.0000
  H   H4        1.0  0.40738  0.62202  0.12575  1.0000
  H   H5        1.0  0.44216  0.57903  0.13170  1.0000
  C   C10       1.0  0.03470  0.02694  0.07024  1.0000
  C   C11       1.0  0.98425  0.05309  0.09978  1.0000
  C   C12       1.0  0.93284  0.02700  0.05488  1.0000
  C   C13       1.0  0.91355  0.05397  0.04991  1.0000
  C   C14       1.0  0.92320  0.07909  0.96062  1.0000
  C   C15       1.0  0.90438  0.10410  0.95712  1.0000
  C   C16       1.0  0.87471  0.10494  0.04226  1.0000
  C   C17       1.0  0.86509  0.07996  0.13233  1.0000
  C   C18       1.0  0.88395  0.05500  0.13501  1.0000
  H   H6        1.0  0.97135  0.07324  0.12475  1.0000
  H   H7        1.0  0.94543  0.07854  0.88915  1.0000
  H   H8        1.0  0.91260  0.12289  0.88552  1.0000
  H   H9        1.0  0.84274  0.08103  0.20263  1.0000
  H   H10       1.0  0.87645  0.03628  0.20941  1.0000
  C   C19       1.0  0.23998  0.75860  0.00156  1.0000
  C   C20       1.0  0.25960  0.73898  0.01419  1.0000
  C   C21       1.0  0.14826  0.84988  0.96008  1.0000
  N   N1        1.0  0.15163  0.87367  0.04444  1.0000
  N   N2        1.0  0.34867  0.62401  0.97134  1.0000
  C   C22       1.0  0.34937  0.64632  0.06935  1.0000
  H   H11       1.0  0.87443  0.15229  0.84974  1.0000
  H   H12       1.0  0.63593  0.35094  0.18183  1.0000
  C   C23       1.0  0.46720  0.47171  0.97087  1.0000
  C   C24       1.0  0.51827  0.44632  0.94587  1.0000
  C   C25       1.0  0.56926  0.47365  0.98579  1.0000
  H   H13       1.0  0.53152  0.42619  0.92573  1.0000
  C   C26       1.0  0.96636  0.97263  0.06726  1.0000
  C   C27       1.0  0.01657  0.94636  0.09626  1.0000
  C   C28       1.0  0.06856  0.97279  0.05793  1.0000
  H   H14       1.0  0.02912  0.92604  0.11897  1.0000
  C   C29       1.0  0.83283  0.17442  0.95655  1.0000
  C   C30       1.0  0.83890  0.20111  0.87429  1.0000
  C   C31       1.0  0.81741  0.22420  0.88569  1.0000
  C   C32       1.0  0.78861  0.22101  0.97768  1.0000
  C   C33       1.0  0.78231  0.19397  0.05790  1.0000
  C   C34       1.0  0.80407  0.17128  0.04820  1.0000
  C   C35       1.0  0.76620  0.24394  0.99149  1.0000
  C   C36       1.0  0.74592  0.26303  0.00751  1.0000
  H   H15       1.0  0.86073  0.20363  0.80057  1.0000
  H   H16       1.0  0.82224  0.24473  0.82196  1.0000
  H   H17       1.0  0.76025  0.19153  0.12950  1.0000
  H   H18       1.0  0.79956  0.15069  0.11204  1.0000
  C   C37       1.0  0.85582  0.15052  0.94695  1.0000
  N   N3        1.0  0.85351  0.12861  0.04820  1.0000
  N   N4        1.0  0.65303  0.37503  0.97549  1.0000
  C   C38       1.0  0.65282  0.35305  0.07650  1.0000
  H   H19       1.0  0.12799  0.84576  0.87988  1.0000
  H   H20       1.0  0.36668  0.64864  0.16835  1.0000
  C   C39       1.0  0.53556  0.47280  0.97038  1.0000
  C   C40       1.0  0.48569  0.44579  0.94578  1.0000
  C   C41       1.0  0.43335  0.47151  0.98831  1.0000
  C   C42       1.0  0.41391  0.44460  0.99642  1.0000
  C   C43       1.0  0.38450  0.44403  0.91612  1.0000
  C   C44       1.0  0.36539  0.41928  0.91986  1.0000
  C   C45       1.0  0.37455  0.39392  0.00531  1.0000
  C   C46       1.0  0.40394  0.39422  0.08626  1.0000
  C   C47       1.0  0.42297  0.41917  0.08260  1.0000
  H   H21       1.0  0.47345  0.42526  0.92425  1.0000
  H   H22       1.0  0.37738  0.46288  0.84379  1.0000
  H   H23       1.0  0.34327  0.41847  0.85280  1.0000
  H   H24       1.0  0.41181  0.37505  0.15394  1.0000
  H   H25       1.0  0.44487  0.41945  0.15167  1.0000
  C   C48       1.0  0.03467  0.97253  0.07152  1.0000
  C   C49       1.0  0.98401  0.94638  0.09330  1.0000
  C   C50       1.0  0.93266  0.97304  0.05102  1.0000
  H   H26       1.0  0.97110  0.92604  0.11312  1.0000
  C   C51       1.0  0.17184  0.17302  0.96234  1.0000
  C   C52       1.0  0.16743  0.20017  0.88376  1.0000
  C   C53       1.0  0.18965  0.22253  0.89857  1.0000
  C   C54       1.0  0.21741  0.21803  0.99059  1.0000
  C   C55       1.0  0.22197  0.19055  0.06782  1.0000
  C   C56       1.0  0.19952  0.16861  0.05467  1.0000
  C   C57       1.0  0.24060  0.24008  0.00742  1.0000
  C   C58       1.0  0.26167  0.25818  0.02670  1.0000
  C   C59       1.0  0.28501  0.28006  0.04469  1.0000
  C   C60       1.0  0.31285  0.27506  0.13535  1.0000
  C   C61       1.0  0.33523  0.29723  0.15249  1.0000
  C   C62       1.0  0.33090  0.32467  0.07716  1.0000
  C   C63       1.0  0.30312  0.32959  0.98642  1.0000
  C   C64       1.0  0.28051  0.30785  0.97097  1.0000
  H   H27       1.0  0.14642  0.20356  0.80972  1.0000
  H   H28       1.0  0.18628  0.24339  0.83673  1.0000
  H   H29       1.0  0.24323  0.18722  0.13958  1.0000
  H   H30       1.0  0.20264  0.14765  0.11590  1.0000
  H   H31       1.0  0.31614  0.25396  0.19463  1.0000
  H   H32       1.0  0.35621  0.29351  0.22626  1.0000
  H   H33       1.0  0.30014  0.35088  0.92863  1.0000
  H   H34       1.0  0.25917  0.31164  0.90037  1.0000
  C   C65       1.0  0.14837  0.14971  0.94786  1.0000
  N   N5        1.0  0.14949  0.12729  0.04531  1.0000
  N   N6        1.0  0.35320  0.37054  0.99737  1.0000
  C   C66       1.0  0.35449  0.34787  0.09286  1.0000
  H   H35       1.0  0.87303  0.84650  0.86475  1.0000
  H   H36       1.0  0.62735  0.65382  0.18395  1.0000
  C   C67       1.0  0.46632  0.52611  0.96410  1.0000
  C   C68       1.0  0.51637  0.55297  0.93554  1.0000
  C   C69       1.0  0.56809  0.52763  0.98443  1.0000
  C   C70       1.0  0.58715  0.55475  0.98901  1.0000
  C   C71       1.0  0.61691  0.55561  0.90518  1.0000
  C   C72       1.0  0.63607  0.58033  0.90945  1.0000
  C   C73       1.0  0.62649  0.60543  0.99782  1.0000
  C   C74       1.0  0.59654  0.60493  0.08038  1.0000
  C   C75       1.0  0.57751  0.58001  0.07665  1.0000
  H   H37       1.0  0.52900  0.57332  0.91120  1.0000
  H   H38       1.0  0.62433  0.53696  0.83055  1.0000
  H   H39       1.0  0.65869  0.58127  0.84155  1.0000
  H   H40       1.0  0.58824  0.62387  0.15006  1.0000
  H   H41       1.0  0.55517  0.57962  0.14724  1.0000
  C   C76       1.0  0.96652  0.02702  0.07095  1.0000
  C   C77       1.0  0.01680  0.05306  0.09873  1.0000
  C   C78       1.0  0.06852  0.02681  0.05350  1.0000
  C   C79       1.0  0.08815  0.05362  0.04609  1.0000
  C   C80       1.0  0.07929  0.07918  0.96055  1.0000
  C   C81       1.0  0.09856  0.10397  0.95754  1.0000
  C   C82       1.0  0.12802  0.10397  0.03774  1.0000
  C   C83       1.0  0.13702  0.07847  0.12242  1.0000
  C   C84       1.0  0.11759  0.05393  0.12616  1.0000
  H   H42       1.0  0.02955  0.07323  0.12235  1.0000
  H   H43       1.0  0.05743  0.07915  0.89109  1.0000
  H   H44       1.0  0.09096  0.12331  0.89054  1.0000
  H   H45       1.0  0.15928  0.07893  0.18841  1.0000
  H   H46       1.0  0.12453  0.03494  0.19793  1.0000
  C   C85       1.0  0.75909  0.76074  0.00590  1.0000
  C   C86       1.0  0.73834  0.74214  0.02483  1.0000
  C   C87       1.0  0.71524  0.71984  0.04251  1.0000
  C   C88       1.0  0.68679  0.72411  0.13603  1.0000
  C   C89       1.0  0.66455  0.70167  0.15206  1.0000
  C   C90       1.0  0.66959  0.67458  0.07327  1.0000
  C   C91       1.0  0.69790  0.67042  0.97921  1.0000
  C   C92       1.0  0.72040  0.69245  0.96476  1.0000
  H   H47       1.0  0.68284  0.74496  0.19739  1.0000
  H   H48       1.0  0.64297  0.70504  0.22664  1.0000
  H   H49       1.0  0.70135  0.64950  0.91769  1.0000
  H   H50       1.0  0.74215  0.68924  0.89160  1.0000
  C   C93       1.0  0.85309  0.85033  0.95228  1.0000
  N   N7        1.0  0.85028  0.87364  0.04177  1.0000
  N   N8        1.0  0.64806  0.62875  0.99106  1.0000
  C   C94       1.0  0.64603  0.65119  0.08781  1.0000
  H   H51       1.0  0.13075  0.15222  0.85043  1.0000
  H   H52       1.0  0.37235  0.34503  0.18880  1.0000
  C   C95       1.0  0.41734  0.49835  0.99626  1.0000
  C   C96       1.0  0.51797  0.49971  0.96984  1.0000
  H   H53       1.0  0.39169  0.49811  0.01835  1.0000
  C   C97       1.0  0.58420  0.50094  0.99660  1.0000
  C   C98       1.0  0.48380  0.49917  0.96939  1.0000
  H   H54       1.0  0.60966  0.50145  0.01851  1.0000
  C   C99       1.0  0.91715  0.00011  0.04295  1.0000
  C   C100      1.0  0.01766  0.99973  0.06876  1.0000
  H   H55       1.0  0.89162  0.00023  0.02277  1.0000
  C   C101      1.0  0.08417  0.99980  0.04565  1.0000
  C   C102      1.0  0.98349  0.99979  0.06792  1.0000
  H   H56       1.0  0.10987  0.99977  0.02539  1.0000
  C   C103      1.0  0.53360  0.52764  0.46960  1.0000
  C   C104      1.0  0.48344  0.55394  0.43976  1.0000
  C   C105      1.0  0.43145  0.52768  0.48203  1.0000
  H   H57       1.0  0.47085  0.57419  0.41530  1.0000
  C   C106      1.0  0.03334  0.02797  0.56788  1.0000
  C   C107      1.0  0.98309  0.05458  0.59469  1.0000
  C   C108      1.0  0.93133  0.02859  0.55370  1.0000
  C   C109      1.0  0.91174  0.05542  0.55145  1.0000
  C   C110      1.0  0.92046  0.08093  0.46323  1.0000
  C   C111      1.0  0.90086  0.10551  0.46214  1.0000
  C   C112      1.0  0.87136  0.10540  0.54887  1.0000
  C   C113      1.0  0.86269  0.08006  0.63814  1.0000
  C   C114      1.0  0.88229  0.05563  0.63847  1.0000
  H   H58       1.0  0.97042  0.07495  0.61719  1.0000
  H   H59       1.0  0.94245  0.08102  0.38968  1.0000
  H   H60       1.0  0.90824  0.12463  0.39079  1.0000
  H   H61       1.0  0.84036  0.08043  0.70884  1.0000
  H   H62       1.0  0.87541  0.03668  0.71244  1.0000
  C   C115      1.0  0.23688  0.75886  0.49912  1.0000
  C   C116      1.0  0.25731  0.74007  0.51623  1.0000
  C   C117      1.0  0.28042  0.71789  0.53169  1.0000
  C   C118      1.0  0.30879  0.72269  0.61839  1.0000
  C   C119      1.0  0.33113  0.70041  0.63213  1.0000
  C   C120      1.0  0.32632  0.67300  0.55755  1.0000
  C   C121      1.0  0.29808  0.66833  0.47026  1.0000
  C   C122      1.0  0.27543  0.69018  0.45859  1.0000
  H   H63       1.0  0.31256  0.74377  0.67681  1.0000
  H   H64       1.0  0.35261  0.70412  0.70195  1.0000
  H   H65       1.0  0.29469  0.64716  0.41223  1.0000
  H   H66       1.0  0.25362  0.68655  0.39174  1.0000
  C   C123      1.0  0.14619  0.85091  0.44632  1.0000
  N   N9        1.0  0.14648  0.87234  0.55037  1.0000
  N   N10       1.0  0.34890  0.62716  0.47619  1.0000
  C   C124      1.0  0.34990  0.64976  0.57192  1.0000
  H   H67       1.0  0.86553  0.15131  0.34570  1.0000
  H   H68       1.0  0.62399  0.34666  0.69040  1.0000
  C   C125      1.0  0.46523  0.47343  0.46884  1.0000
  C   C126      1.0  0.51568  0.44720  0.44226  1.0000
  C   C127      1.0  0.56692  0.47328  0.48981  1.0000
  H   H69       1.0  0.52861  0.42700  0.41862  1.0000
  C   C128      1.0  0.96448  0.97416  0.56999  1.0000
  C   C129      1.0  0.01449  0.94766  0.60007  1.0000
  C   C130      1.0  0.06654  0.97346  0.55262  1.0000
  H   H70       1.0  0.02685  0.92736  0.62622  1.0000
  C   C131      1.0  0.75539  0.23894  0.52905  1.0000
  C   C132      1.0  0.73484  0.25771  0.54720  1.0000
  C   C133      1.0  0.71205  0.28023  0.56337  1.0000
  C   C134      1.0  0.68352  0.27637  0.65681  1.0000
  C   C135      1.0  0.66145  0.29896  0.66959  1.0000
  C   C136      1.0  0.66685  0.32583  0.58820  1.0000
  C   C137      1.0  0.69546  0.32969  0.49606  1.0000
  C   C138      1.0  0.71769  0.30745  0.48397  1.0000
  H   H71       1.0  0.67941  0.25568  0.72026  1.0000
  H   H72       1.0  0.63973  0.29591  0.74357  1.0000
  H   H73       1.0  0.69933  0.35049  0.43343  1.0000
  H   H74       1.0  0.73958  0.31037  0.41151  1.0000
  C   C139      1.0  0.84926  0.14983  0.45379  1.0000
  N   N11       1.0  0.84958  0.12851  0.55901  1.0000
  N   N12       1.0  0.64627  0.37189  0.50226  1.0000
  C   C140      1.0  0.64342  0.34932  0.59828  1.0000
  H   H75       1.0  0.12986  0.84990  0.34225  1.0000
  H   H76       1.0  0.36764  0.65247  0.66846  1.0000
  C   C141      1.0  0.53333  0.47328  0.47158  1.0000
  C   C142      1.0  0.48315  0.44728  0.44084  1.0000
  C   C143      1.0  0.43142  0.47364  0.48428  1.0000
  C   C144      1.0  0.41182  0.44683  0.48963  1.0000
  C   C145      1.0  0.38266  0.44634  0.40697  1.0000
  C   C146      1.0  0.36326  0.42173  0.41067  1.0000
  C   C147      1.0  0.37210  0.39636  0.49710  1.0000
  C   C148      1.0  0.40127  0.39663  0.57996  1.0000
  C   C149      1.0  0.42047  0.42144  0.57728  1.0000
  H   H77       1.0  0.47052  0.42711  0.41552  1.0000
  H   H78       1.0  0.37591  0.46523  0.33376  1.0000
  H   H79       1.0  0.34104  0.42118  0.34436  1.0000
  H   H80       1.0  0.40868  0.37760  0.65017  1.0000
  H   H81       1.0  0.44206  0.42161  0.64895  1.0000
  C   C150      1.0  0.03274  0.97358  0.57026  1.0000
  C   C151      1.0  0.98194  0.94792  0.59911  1.0000
  C   C152      1.0  0.93080  0.97458  0.55394  1.0000
  C   C153      1.0  0.91096  0.94793  0.54929  1.0000
  C   C154      1.0  0.92011  0.92250  0.46221  1.0000
  C   C155      1.0  0.90067  0.89786  0.45968  1.0000
  C   C156      1.0  0.87080  0.89773  0.54293  1.0000
  C   C157      1.0  0.86150  0.92312  0.62954  1.0000
  C   C158      1.0  0.88107  0.94761  0.63213  1.0000
  H   H82       1.0  0.96888  0.92777  0.62258  1.0000
  H   H83       1.0  0.94238  0.92249  0.39104  1.0000
  H   H84       1.0  0.90858  0.87872  0.39050  1.0000
  H   H85       1.0  0.83883  0.92276  0.69726  1.0000
  H   H86       1.0  0.87379  0.96654  0.70471  1.0000
  C   C159      1.0  0.24252  0.23860  0.51221  1.0000
  C   C160      1.0  0.26261  0.25772  0.52833  1.0000
  C   C161      1.0  0.14897  0.14927  0.45091  1.0000
  N   N13       1.0  0.14987  0.12665  0.54710  1.0000
  N   N14       1.0  0.35071  0.37293  0.48999  1.0000
  C   C162      1.0  0.35250  0.35032  0.58586  1.0000
  H   H87       1.0  0.86820  0.85185  0.34342  1.0000
  H   H88       1.0  0.63148  0.65103  0.67059  1.0000
  C   C163      1.0  0.46531  0.52787  0.46761  1.0000
  C   C164      1.0  0.51602  0.55382  0.44052  1.0000
  C   C165      1.0  0.56730  0.52723  0.48539  1.0000
  C   C166      1.0  0.58738  0.55375  0.48558  1.0000
  C   C167      1.0  0.61681  0.55342  0.39832  1.0000
  C   C168      1.0  0.63694  0.57751  0.39789  1.0000
  C   C169      1.0  0.62870  0.60308  0.48536  1.0000
  C   C170      1.0  0.59918  0.60366  0.57205  1.0000
  C   C171      1.0  0.57913  0.57942  0.57269  1.0000
  H   H89       1.0  0.52912  0.57392  0.41642  1.0000
  H   H90       1.0  0.62328  0.53424  0.32572  1.0000
  H   H91       1.0  0.65938  0.57739  0.32813  1.0000
  H   H92       1.0  0.59211  0.62293  0.64224  1.0000
  H   H93       1.0  0.55715  0.57986  0.64646  1.0000
  C   C172      1.0  0.96505  0.02858  0.56841  1.0000
  C   C173      1.0  0.01567  0.05429  0.59461  1.0000
  C   C174      1.0  0.06716  0.02742  0.55109  1.0000
  C   C175      1.0  0.08722  0.05393  0.54578  1.0000
  C   C176      1.0  0.07914  0.07944  0.45785  1.0000
  C   C177      1.0  0.09888  0.10390  0.45500  1.0000
  C   C178      1.0  0.12794  0.10368  0.53902  1.0000
  C   C179      1.0  0.13617  0.07819  0.62587  1.0000
  C   C180      1.0  0.11637  0.05388  0.62851  1.0000
  H   H94       1.0  0.02862  0.07441  0.61699  1.0000
  H   H95       1.0  0.05761  0.07954  0.38570  1.0000
  H   H96       1.0  0.09195  0.12299  0.38388  1.0000
  H   H97       1.0  0.15825  0.07836  0.69350  1.0000
  H   H98       1.0  0.12285  0.03481  0.70083  1.0000
  C   C181      1.0  0.76200  0.75872  0.49828  1.0000
  C   C182      1.0  0.74201  0.73931  0.51172  1.0000
  C   C183      1.0  0.85092  0.85271  0.44742  1.0000
  N   N15       1.0  0.84949  0.87415  0.55147  1.0000
  N   N16       1.0  0.65100  0.62583  0.47537  1.0000
  C   C184      1.0  0.64976  0.64826  0.57251  1.0000
  H   H99       1.0  0.13113  0.15226  0.35501  1.0000
  H   H100      1.0  0.37061  0.34780  0.68082  1.0000
  C   C185      1.0  0.41581  0.50066  0.49344  1.0000
  C   C186      1.0  0.51641  0.50053  0.47224  1.0000
  H   H101      1.0  0.39010  0.50064  0.51328  1.0000
  C   C187      1.0  0.58265  0.50018  0.49898  1.0000
  C   C188      1.0  0.48227  0.50062  0.47108  1.0000
  H   H102      1.0  0.60814  0.50007  0.52029  1.0000
  C   C189      1.0  0.91554  0.00170  0.54314  1.0000
  C   C190      1.0  0.01599  0.00093  0.56715  1.0000
  H   H103      1.0  0.89004  0.00190  0.52250  1.0000
  C   C191      1.0  0.08245  0.00029  0.54007  1.0000
  C   C192      1.0  0.98181  0.00123  0.56731  1.0000
  H   H104      1.0  0.10807  0.00001  0.51743  1.0000
  C   C193      1.0  0.82591  0.20715  0.37689  1.0000
  C   C194      1.0  0.82769  0.17987  0.45438  1.0000
  C  Sn1       1.0  0.80312  0.17049  0.56099  1.0000
  C  Sn2       1.0  0.77630  0.18879  0.59029  1.0000
  C   C195      1.0  0.77474  0.21603  0.51208  1.0000
  C   C196      1.0  0.79946  0.22521  0.40567  1.0000
  H   H105      1.0  0.84504  0.21424  0.29449  1.0000
  O  Te1       1.0  0.80528  0.14318  0.63744  1.0000
  O  Te2       1.0  0.75139  0.17995  0.69622  1.0000
  H   H106      1.0  0.79807  0.24632  0.34561  1.0000
  Mg  Mg1       1.0  0.76530  0.14084  0.77144  1.0000
  C   C197      1.0  0.21578  0.81559  0.58148  1.0000
  C   C198      1.0  0.21521  0.78753  0.51354  1.0000
  C  Sn3       1.0  0.19093  0.77951  0.40755  1.0000
  C  Sn4       1.0  0.16682  0.80001  0.36906  1.0000
  C   C199      1.0  0.16762  0.82803  0.43758  1.0000
  C   C200      1.0  0.19201  0.83583  0.54353  1.0000
  H   H107      1.0  0.23466  0.82163  0.66339  1.0000
  O  Te3       1.0  0.19071  0.75138  0.34080  1.0000
  O  Te4       1.0  0.14229  0.79257  0.26345  1.0000
  H   H108      1.0  0.19246  0.85756  0.59603  1.0000
  Mg  Mg2       1.0  0.15230  0.75158  0.20331  1.0000
  C   C201      1.0  0.78177  0.81533  0.58956  1.0000
  C   C202      1.0  0.78131  0.78899  0.50252  1.0000
  C  Sn5       1.0  0.80654  0.78166  0.39502  1.0000
  C  Sn6       1.0  0.83269  0.80111  0.37458  1.0000
  C   C203      1.0  0.83293  0.82741  0.46232  1.0000
  C   C204      1.0  0.80756  0.83452  0.56952  1.0000
  H   H109      1.0  0.76215  0.82083  0.67258  1.0000
  O  Te5       1.0  0.80569  0.75526  0.30896  1.0000
  O  Te6       1.0  0.85822  0.79433  0.26799  1.0000
  H   H110      1.0  0.80793  0.85491  0.63698  1.0000
  Mg  Mg3       1.0  0.84611  0.75577  0.17798  1.0000
  C   C205      1.0  0.20922  0.16898  0.56539  1.0000
  C   C206      1.0  0.17912  0.17076  0.49587  1.0000
  C  Sn7       1.0  0.16969  0.19630  0.41561  1.0000
  C  Sn8       1.0  0.19084  0.22048  0.40492  1.0000
  C   C207      1.0  0.22091  0.21848  0.47478  1.0000
  C   C208      1.0  0.23010  0.19282  0.55485  1.0000
  H   H111      1.0  0.21634  0.14912  0.62727  1.0000
  O  Te7       1.0  0.13953  0.19771  0.34688  1.0000
  O  Te8       1.0  0.18203  0.24627  0.32536  1.0000
  H   H112      1.0  0.25342  0.19145  0.60857  1.0000
  Mg  Mg4       1.0  0.13842  0.23759  0.25113  1.0000
  C   C209      1.0  0.67479  0.29525  0.14880  1.0000
  C   C210      1.0  0.67561  0.32388  0.08801  1.0000
  C  Sn9       1.0  0.69619  0.33258  0.98323  1.0000
  C  Sn10      1.0  0.72077  0.31261  0.93867  1.0000
  C   C211      1.0  0.72412  0.28443  0.00004  1.0000
  C   C212      1.0  0.69902  0.27554  0.10485  1.0000
  H   H113      1.0  0.65536  0.28836  0.22982  1.0000
  O  Te9       1.0  0.69664  0.36127  0.92366  1.0000
  O  Te10      1.0  0.74601  0.32115  0.83410  1.0000
  H   H114      1.0  0.69838  0.25337  0.15181  1.0000
  Mg  Mg5       1.0  0.73606  0.36255  0.78479  1.0000
  C   C213      1.0  0.31712  0.71679  0.13996  1.0000
  C   C214      1.0  0.29000  0.71837  0.04343  1.0000
  C  Sn11      1.0  0.27566  0.69355  0.95481  1.0000
  C  Sn12      1.0  0.29324  0.66710  0.96326  1.0000
  C   C215      1.0  0.32472  0.66616  0.06028  1.0000
  C   C216      1.0  0.33446  0.69071  0.14842  1.0000
  H   H115      1.0  0.32465  0.73579  0.20823  1.0000
  O  Te11      1.0  0.24853  0.69551  0.85892  1.0000
  O  Te12      1.0  0.28383  0.64238  0.87599  1.0000
  H   H116      1.0  0.35544  0.68948  0.22323  1.0000
  Mg  Mg6       1.0  0.24523  0.65589  0.76240  1.0000
  C   C217      1.0  0.09228  0.89982  0.95025  1.0000
  C   C218      1.0  0.12682  0.89640  0.01680  1.0000
  C  Sn13      1.0  0.14012  0.91831  0.11351  1.0000
  C  Sn14      1.0  0.12287  0.94450  0.14398  1.0000
  C   C219      1.0  0.09272  0.94812  0.07694  1.0000
  C   C220      1.0  0.07524  0.92565  0.98029  1.0000
  H   H117      1.0  0.08214  0.88275  0.87554  1.0000
  O  Te13      1.0  0.17026  0.91413  0.17900  1.0000
  O  Te14      1.0  0.13559  0.96674  0.24026  1.0000
  H   H118      1.0  0.05189  0.92861  0.92887  1.0000
  Mg  Mg7       1.0  0.17751  0.95079  0.30236  1.0000
  C   C221      1.0  0.58819  0.40042  0.61000  1.0000
  C   C222      1.0  0.61636  0.39410  0.52198  1.0000
  C  Sn15      1.0  0.63093  0.41546  0.42244  1.0000
  C  Sn16      1.0  0.61699  0.44365  0.41108  1.0000
  C   C223      1.0  0.58881  0.44975  0.49972  1.0000
  C   C224      1.0  0.57443  0.42821  0.59893  1.0000
  H   H119      1.0  0.57706  0.38376  0.68683  1.0000
  O  Te15      1.0  0.65906  0.40879  0.33528  1.0000
  O  Te16      1.0  0.63105  0.46541  0.31256  1.0000
  H   H120      1.0  0.55263  0.43311  0.66715  1.0000
  Mg  Mg8       1.0  0.66925  0.44574  0.21741  1.0000
  C   C225      1.0  0.58285  0.41385  0.08799  1.0000
  C   C226      1.0  0.58802  0.44155  0.01909  1.0000
  C  Sn17      1.0  0.61083  0.44659  0.92144  1.0000
  C  Sn18      1.0  0.63325  0.42385  0.89240  1.0000
  C   C227      1.0  0.62785  0.39621  0.96179  1.0000
  C   C228      1.0  0.60494  0.39141  0.05936  1.0000
  H   H121      1.0  0.56171  0.40981  0.16340  1.0000
  O  Te17      1.0  0.61563  0.47439  0.85360  1.0000
  O  Te18      1.0  0.66065  0.42870  0.79523  1.0000
  H   H122      1.0  0.60094  0.36996  0.11259  1.0000
  Mg  Mg9       1.0  0.65661  0.47027  0.72984  1.0000
  C   C229      1.0  0.87532  0.94258  0.14014  1.0000
  C   C230      1.0  0.90597  0.94647  0.07277  1.0000
  C  Sn19      1.0  0.91550  0.92434  0.97395  1.0000
  C  Sn20      1.0  0.89837  0.89827  0.94216  1.0000
  C   C231      1.0  0.87211  0.89501  0.01004  1.0000
  C   C232      1.0  0.85839  0.91688  0.10880  1.0000
  H   H123      1.0  0.86470  0.95951  0.21649  1.0000
  O  Te19      1.0  0.94615  0.92857  0.90766  1.0000
  O  Te20      1.0  0.91172  0.87622  0.84377  1.0000
  H   H124      1.0  0.83465  0.91387  0.16086  1.0000
  Mg  Mg10      1.0  0.95417  0.89217  0.78132  1.0000
  C   C233      1.0  0.17957  0.77860  0.90223  1.0000
  C   C234      1.0  0.21043  0.77964  0.96309  1.0000
  C  Sn21      1.0  0.22612  0.80561  0.03583  1.0000
  C  Sn22      1.0  0.20608  0.83054  0.04775  1.0000
  C   C235      1.0  0.17083  0.82885  0.98660  1.0000
  C   C236      1.0  0.15978  0.80318  0.91399  1.0000
  H   H125      1.0  0.17101  0.75873  0.84613  1.0000
  O  Te21      1.0  0.25702  0.80628  0.09594  1.0000
  O  Te22      1.0  0.21675  0.85635  0.11993  1.0000
  H   H126      1.0  0.13588  0.80237  0.86699  1.0000
  Mg  Mg11      1.0  0.26072  0.84651  0.18375  1.0000
  C   C237      1.0  0.36464  0.57115  0.38310  1.0000
  C   C238      1.0  0.36710  0.59712  0.47259  1.0000
  C  Sn23      1.0  0.39378  0.60236  0.56817  1.0000
  C  Sn24      1.0  0.41842  0.58117  0.57399  1.0000
  C   C239      1.0  0.41576  0.55527  0.48392  1.0000
  C   C240      1.0  0.38895  0.55025  0.38872  1.0000
  H   H127      1.0  0.34391  0.56727  0.30936  1.0000
  O  Te23      1.0  0.39584  0.62841  0.65687  1.0000
  O  Te24      1.0  0.44535  0.58585  0.66847  1.0000
  H   H128      1.0  0.38707  0.53015  0.31935  1.0000
  Mg  Mg12      1.0  0.43722  0.62475  0.76774  1.0000
  C   C241      1.0  0.28167  0.31581  0.46023  1.0000
  C   C242      1.0  0.28355  0.28701  0.51731  1.0000
  C  Sn25      1.0  0.30907  0.27822  0.61337  1.0000
  C  Sn26      1.0  0.33312  0.29870  0.65286  1.0000
  C   C243      1.0  0.33101  0.32747  0.59526  1.0000
  C   C244      1.0  0.30537  0.33603  0.49917  1.0000
  H   H129      1.0  0.26183  0.32244  0.38596  1.0000
  O  Te25      1.0  0.31059  0.24935  0.66933  1.0000
  O  Te26      1.0  0.35888  0.29050  0.74870  1.0000
  H   H130      1.0  0.30392  0.35834  0.45509  1.0000
  Mg  Mg13      1.0  0.35038  0.24867  0.79603  1.0000
  C   C245      1.0  0.07839  0.91352  0.44690  1.0000
  C   C246      1.0  0.08248  0.93980  0.53160  1.0000
  C  Sn27      1.0  0.10992  0.94452  0.62223  1.0000
  C  Sn28      1.0  0.13367  0.92248  0.62790  1.0000
  C   C247      1.0  0.12937  0.89628  0.54264  1.0000
  C   C248      1.0  0.10181  0.89178  0.45237  1.0000
  H   H131      1.0  0.05708  0.91004  0.37697  1.0000
  O  Te27      1.0  0.11361  0.97089  0.70619  1.0000
  O  Te28      1.0  0.16133  0.92663  0.71749  1.0000
  H   H132      1.0  0.09867  0.87144  0.38671  1.0000
  Mg  Mg14      1.0  0.15545  0.96626  0.81139  1.0000
  C   C249      1.0  0.83251  0.79188  0.88752  1.0000
  C   C250      1.0  0.83038  0.82116  0.93565  1.0000
  C  Sn29      1.0  0.80780  0.83168  0.02196  1.0000
  C  Sn30      1.0  0.78251  0.81205  0.06068  1.0000
  C   C251      1.0  0.78488  0.78279  0.01208  1.0000
  C   C252      1.0  0.80759  0.77250  0.92571  1.0000
  H   H133      1.0  0.85349  0.78423  0.82077  1.0000
  O  Te29      1.0  0.80605  0.86101  0.06906  1.0000
  O  Te30      1.0  0.75527  0.82157  0.14688  1.0000
  H   H134      1.0  0.80924  0.74982  0.88855  1.0000
  Mg  Mg15      1.0  0.76404  0.86356  0.18438  1.0000
  C   C253      1.0  0.67129  0.70586  0.64989  1.0000
  C   C254      1.0  0.67087  0.67849  0.57353  1.0000
  C  Sn31      1.0  0.69658  0.66952  0.47350  1.0000
  C  Sn32      1.0  0.72317  0.68835  0.44975  1.0000
  C   C255      1.0  0.72337  0.71568  0.52678  1.0000
  C   C256      1.0  0.69751  0.72444  0.62658  1.0000
  H   H135      1.0  0.65129  0.71263  0.72718  1.0000
  O  Te31      1.0  0.69577  0.64211  0.39809  1.0000
  O  Te32      1.0  0.74919  0.67994  0.35046  1.0000
  H   H136      1.0  0.69785  0.74562  0.68577  1.0000
  Mg  Mg16      1.0  0.73693  0.64048  0.27406  1.0000
