data_image0
_chemical_formula_structural       C3HC3HC3N2CH2C3HC3HC3N2CH2C3HC3HC3N2CH2C3HC3HC3N2CH2C2HC2HC2HC2HC3HC3HC3N2CH2C3HC3HC3N2CH2C3HC3HC3N2CH2C3HC3HC3N2CH2C2HC2HC2HC2HSnCSn2CSnTe4Mg2SnCSn2CSnTe4Mg2SnCSn2CSnTe4Mg2SnCSn2CSnTe4Mg2SnCSn2CSnTe4Mg2SnCSn2CSnTe4Mg2SnCSn2CSnTe4Mg2SnCSn2CSnTe4Mg2SnCSn2CSnTe4Mg2SnCSn2CSnTe4Mg2SnCSn2CSnTe4Mg2SnCSn2CSnTe4Mg2SnCSn2CSnTe4Mg2SnCSn2CSnTe4Mg2SnCSn2CSnTe4Mg2SnCSn2CSnTe4Mg2SnCSn2CSnTe4Mg2SnCSn2CSnTe4Mg2SnCSn2CSnTe4Mg2SnCSn2CSnTe4Mg2SnCSn2CSnTe4Mg2SnCSn2CSnTe4Mg2SnCSn2CSnTe4Mg2SnCSn2CSnTe4Mg2SnCSn2CSnTe4Mg2SnCSn2CSnTe4Mg2SnCSn2CSnTe4Mg2SnCSn2CSnTe4Mg2SnCSn2CSnTe4Mg2SnCSn2CSnTe4Mg2SnCSn2CSnTe4Mg2SnCSn2CSnTe4Mg2
_chemical_formula_sum              "C160 H40 N16 Sn128 Te128 Mg64"
_cell_length_a       41.9761
_cell_length_b       45.7138
_cell_length_c       8.10521
_cell_angle_alpha    89.8665
_cell_angle_beta     88.6932
_cell_angle_gamma    90.0134

_symmetry_space_group_name_H-M    'P1'
_space_group_IT_number       1

loop_
  _space_group_symop_operation_xyz
  'x, y, z'

loop_
  _atom_site_type_symbol
  _atom_site_label
  _atom_site_symmetry_multiplicity
  _atom_site_fract_x
  _atom_site_fract_y
  _atom_site_fract_z
  _atom_site_occupancy
  C   C1        1.0  0.53447  0.52719  0.96655  1.0000
  C   C2        1.0  0.48383  0.55244  0.93357  1.0000
  C   C3        1.0  0.43252  0.52550  0.98057  1.0000
  H   H1        1.0  0.47085  0.57238  0.90702  1.0000
  C   C4        1.0  0.03470  0.02694  0.07024  1.0000
  C   C5        1.0  0.98425  0.05309  0.09978  1.0000
  C   C6        1.0  0.93284  0.02700  0.05488  1.0000
  H   H2        1.0  0.97135  0.07324  0.12475  1.0000
  C   C7        1.0  0.23998  0.75860  0.00156  1.0000
  C   C8        1.0  0.25960  0.73898  0.01419  1.0000
  C   C9        1.0  0.14826  0.84988  0.96008  1.0000
  N   N1        1.0  0.15163  0.87367  0.04444  1.0000
  N   N2        1.0  0.34867  0.62401  0.97134  1.0000
  C   C10       1.0  0.34937  0.64632  0.06935  1.0000
  H   H3        1.0  0.87443  0.15229  0.84974  1.0000
  H   H4        1.0  0.63593  0.35094  0.18183  1.0000
  C   C11       1.0  0.46720  0.47171  0.97087  1.0000
  C   C12       1.0  0.51827  0.44632  0.94587  1.0000
  C   C13       1.0  0.56926  0.47365  0.98579  1.0000
  H   H5        1.0  0.53152  0.42619  0.92573  1.0000
  C   C14       1.0  0.96636  0.97263  0.06726  1.0000
  C   C15       1.0  0.01657  0.94636  0.09626  1.0000
  C   C16       1.0  0.06856  0.97279  0.05793  1.0000
  H   H6        1.0  0.02912  0.92604  0.11897  1.0000
  C   C17       1.0  0.76620  0.24394  0.99149  1.0000
  C   C18       1.0  0.74592  0.26303  0.00751  1.0000
  C   C19       1.0  0.85582  0.15052  0.94695  1.0000
  N   N3        1.0  0.85351  0.12861  0.04820  1.0000
  N   N4        1.0  0.65303  0.37503  0.97549  1.0000
  C   C20       1.0  0.65282  0.35305  0.07650  1.0000
  H   H7        1.0  0.12799  0.84576  0.87988  1.0000
  H   H8        1.0  0.36668  0.64864  0.16835  1.0000
  C   C21       1.0  0.53556  0.47280  0.97038  1.0000
  C   C22       1.0  0.48569  0.44579  0.94578  1.0000
  C   C23       1.0  0.43335  0.47151  0.98831  1.0000
  H   H9        1.0  0.47345  0.42526  0.92425  1.0000
  C   C24       1.0  0.03467  0.97253  0.07152  1.0000
  C   C25       1.0  0.98401  0.94638  0.09330  1.0000
  C   C26       1.0  0.93266  0.97304  0.05102  1.0000
  H   H10       1.0  0.97110  0.92604  0.11312  1.0000
  C   C27       1.0  0.24060  0.24008  0.00742  1.0000
  C   C28       1.0  0.26167  0.25818  0.02670  1.0000
  C   C29       1.0  0.14837  0.14971  0.94786  1.0000
  N   N5        1.0  0.14949  0.12729  0.04531  1.0000
  N   N6        1.0  0.35320  0.37054  0.99737  1.0000
  C   C30       1.0  0.35449  0.34787  0.09286  1.0000
  H   H11       1.0  0.87303  0.84650  0.86475  1.0000
  H   H12       1.0  0.62735  0.65382  0.18395  1.0000
  C   C31       1.0  0.46632  0.52611  0.96410  1.0000
  C   C32       1.0  0.51637  0.55297  0.93554  1.0000
  C   C33       1.0  0.56809  0.52763  0.98443  1.0000
  H   H13       1.0  0.52900  0.57332  0.91120  1.0000
  C   C34       1.0  0.96652  0.02702  0.07095  1.0000
  C   C35       1.0  0.01680  0.05306  0.09873  1.0000
  C   C36       1.0  0.06852  0.02681  0.05350  1.0000
  H   H14       1.0  0.02955  0.07323  0.12235  1.0000
  C   C37       1.0  0.75909  0.76074  0.00590  1.0000
  C   C38       1.0  0.73834  0.74214  0.02483  1.0000
  C   C39       1.0  0.85309  0.85033  0.95228  1.0000
  N   N7        1.0  0.85028  0.87364  0.04177  1.0000
  N   N8        1.0  0.64806  0.62875  0.99106  1.0000
  C   C40       1.0  0.64603  0.65119  0.08781  1.0000
  H   H15       1.0  0.13075  0.15222  0.85043  1.0000
  H   H16       1.0  0.37235  0.34503  0.18880  1.0000
  C   C41       1.0  0.41734  0.49835  0.99626  1.0000
  C   C42       1.0  0.51797  0.49971  0.96984  1.0000
  H   H17       1.0  0.39169  0.49811  0.01835  1.0000
  C   C43       1.0  0.58420  0.50094  0.99660  1.0000
  C   C44       1.0  0.48380  0.49917  0.96939  1.0000
  H   H18       1.0  0.60966  0.50145  0.01851  1.0000
  C   C45       1.0  0.91715  0.00011  0.04295  1.0000
  C   C46       1.0  0.01766  0.99973  0.06876  1.0000
  H   H19       1.0  0.89162  0.00023  0.02277  1.0000
  C   C47       1.0  0.08417  0.99980  0.04565  1.0000
  C   C48       1.0  0.98349  0.99979  0.06792  1.0000
  H   H20       1.0  0.10987  0.99977  0.02539  1.0000
  C   C49       1.0  0.53360  0.52764  0.46960  1.0000
  C   C50       1.0  0.48344  0.55394  0.43976  1.0000
  C   C51       1.0  0.43145  0.52768  0.48203  1.0000
  H   H21       1.0  0.47085  0.57419  0.41530  1.0000
  C   C52       1.0  0.03334  0.02797  0.56788  1.0000
  C   C53       1.0  0.98309  0.05458  0.59469  1.0000
  C   C54       1.0  0.93133  0.02859  0.55370  1.0000
  H   H22       1.0  0.97042  0.07495  0.61719  1.0000
  C   C55       1.0  0.23688  0.75886  0.49912  1.0000
  C   C56       1.0  0.25731  0.74007  0.51623  1.0000
  C   C57       1.0  0.14619  0.85091  0.44632  1.0000
  N   N9        1.0  0.14648  0.87234  0.55037  1.0000
  N   N10       1.0  0.34890  0.62716  0.47619  1.0000
  C   C58       1.0  0.34990  0.64976  0.57192  1.0000
  H   H23       1.0  0.86553  0.15131  0.34570  1.0000
  H   H24       1.0  0.62399  0.34666  0.69040  1.0000
  C   C59       1.0  0.46523  0.47343  0.46884  1.0000
  C   C60       1.0  0.51568  0.44720  0.44226  1.0000
  C   C61       1.0  0.56692  0.47328  0.48981  1.0000
  H   H25       1.0  0.52861  0.42700  0.41862  1.0000
  C   C62       1.0  0.96448  0.97416  0.56999  1.0000
  C   C63       1.0  0.01449  0.94766  0.60007  1.0000
  C   C64       1.0  0.06654  0.97346  0.55262  1.0000
  H   H26       1.0  0.02685  0.92736  0.62622  1.0000
  C   C65       1.0  0.75539  0.23894  0.52905  1.0000
  C   C66       1.0  0.73484  0.25771  0.54720  1.0000
  C   C67       1.0  0.84926  0.14983  0.45379  1.0000
  N   N11       1.0  0.84958  0.12851  0.55901  1.0000
  N   N12       1.0  0.64627  0.37189  0.50226  1.0000
  C   C68       1.0  0.64342  0.34932  0.59828  1.0000
  H   H27       1.0  0.12986  0.84990  0.34225  1.0000
  H   H28       1.0  0.36764  0.65247  0.66846  1.0000
  C   C69       1.0  0.53333  0.47328  0.47158  1.0000
  C   C70       1.0  0.48315  0.44728  0.44084  1.0000
  C   C71       1.0  0.43142  0.47364  0.48428  1.0000
  H   H29       1.0  0.47052  0.42711  0.41552  1.0000
  C   C72       1.0  0.03274  0.97358  0.57026  1.0000
  C   C73       1.0  0.98194  0.94792  0.59911  1.0000
  C   C74       1.0  0.93080  0.97458  0.55394  1.0000
  H   H30       1.0  0.96888  0.92777  0.62258  1.0000
  C   C75       1.0  0.24252  0.23860  0.51221  1.0000
  C   C76       1.0  0.26261  0.25772  0.52833  1.0000
  C   C77       1.0  0.14897  0.14927  0.45091  1.0000
  N   N13       1.0  0.14987  0.12665  0.54710  1.0000
  N   N14       1.0  0.35071  0.37293  0.48999  1.0000
  C   C78       1.0  0.35250  0.35032  0.58586  1.0000
  H   H31       1.0  0.86820  0.85185  0.34342  1.0000
  H   H32       1.0  0.63148  0.65103  0.67059  1.0000
  C   C79       1.0  0.46531  0.52787  0.46761  1.0000
  C   C80       1.0  0.51602  0.55382  0.44052  1.0000
  C   C81       1.0  0.56730  0.52723  0.48539  1.0000
  H   H33       1.0  0.52912  0.57392  0.41642  1.0000
  C   C82       1.0  0.96505  0.02858  0.56841  1.0000
  C   C83       1.0  0.01567  0.05429  0.59461  1.0000
  C   C84       1.0  0.06716  0.02742  0.55109  1.0000
  H   H34       1.0  0.02862  0.07441  0.61699  1.0000
  C   C85       1.0  0.76200  0.75872  0.49828  1.0000
  C   C86       1.0  0.74201  0.73931  0.51172  1.0000
  C   C87       1.0  0.85092  0.85271  0.44742  1.0000
  N   N15       1.0  0.84949  0.87415  0.55147  1.0000
  N   N16       1.0  0.65100  0.62583  0.47537  1.0000
  C   C88       1.0  0.64976  0.64826  0.57251  1.0000
  H   H35       1.0  0.13113  0.15226  0.35501  1.0000
  H   H36       1.0  0.37061  0.34780  0.68082  1.0000
  C   C89       1.0  0.41581  0.50066  0.49344  1.0000
  C   C90       1.0  0.51641  0.50053  0.47224  1.0000
  H   H37       1.0  0.39010  0.50064  0.51328  1.0000
  C   C91       1.0  0.58265  0.50018  0.49898  1.0000
  C   C92       1.0  0.48227  0.50062  0.47108  1.0000
  H   H38       1.0  0.60814  0.50007  0.52029  1.0000
  C   C93       1.0  0.91554  0.00170  0.54314  1.0000
  C   C94       1.0  0.01599  0.00093  0.56715  1.0000
  H   H39       1.0  0.89004  0.00190  0.52250  1.0000
  C   C95       1.0  0.08245  0.00029  0.54007  1.0000
  C   C96       1.0  0.98181  0.00123  0.56731  1.0000
  H   H40       1.0  0.10807  0.00001  0.51743  1.0000
  C  Sn1       1.0  0.36126  0.56588  0.93295  1.0000
  C   C97       1.0  0.37011  0.59347  0.00765  1.0000
  C  Sn2       1.0  0.40024  0.60178  0.06034  1.0000
  C  Sn3       1.0  0.42648  0.58255  0.03781  1.0000
  C   C98       1.0  0.41762  0.55498  0.96312  1.0000
  C  Sn4       1.0  0.38750  0.54664  0.91041  1.0000
  O  Te1       1.0  0.33094  0.55802  0.88122  1.0000
  O  Te2       1.0  0.40409  0.62906  0.13476  1.0000
  O  Te3       1.0  0.45682  0.59043  0.08961  1.0000
  O  Te4       1.0  0.38364  0.51939  0.83602  1.0000
  Mg  Mg1       1.0  0.45005  0.62987  0.18437  1.0000
  Mg  Mg2       1.0  0.33770  0.51856  0.78628  1.0000
  C  Sn5       1.0  0.92534  0.08840  0.99323  1.0000
  C   C99       1.0  0.92318  0.06216  0.07173  1.0000
  C  Sn6       1.0  0.89236  0.05577  0.12971  1.0000
  C  Sn7       1.0  0.86758  0.07644  0.10870  1.0000
  C   C100      1.0  0.87415  0.10307  0.03022  1.0000
  C  Sn8       1.0  0.90056  0.10907  0.97222  1.0000
  O  Te5       1.0  0.95633  0.09432  0.93624  1.0000
  O  Te6       1.0  0.88638  0.02899  0.20784  1.0000
  O  Te7       1.0  0.83657  0.07050  0.16577  1.0000
  O  Te8       1.0  0.90654  0.13583  0.89410  1.0000
  Mg  Mg3       1.0  0.84029  0.03101  0.26414  1.0000
  Mg  Mg4       1.0  0.95262  0.13383  0.83768  1.0000
  C  Sn9       1.0  0.21143  0.83065  0.00868  1.0000
  C   C101      1.0  0.17665  0.82891  0.94197  1.0000
  C  Sn10      1.0  0.16262  0.80190  0.90887  1.0000
  C  Sn11      1.0  0.17928  0.77568  0.94325  1.0000
  C   C102      1.0  0.21403  0.77743  0.00994  1.0000
  C  Sn12      1.0  0.22809  0.80443  0.04306  1.0000
  O  Te9       1.0  0.22500  0.85789  0.04079  1.0000
  O  Te10      1.0  0.13223  0.80113  0.84212  1.0000
  O  Te11      1.0  0.16568  0.74843  0.91108  1.0000
  O  Te12      1.0  0.25845  0.80521  0.10979  1.0000
  Mg  Mg5       1.0  0.12378  0.75873  0.82005  1.0000
  Mg  Mg6       1.0  0.26692  0.84760  0.13199  1.0000
  C  Sn13      1.0  0.32346  0.70012  0.17792  1.0000
  C   C103      1.0  0.32229  0.67231  0.10696  1.0000
  C  Sn14      1.0  0.29723  0.66625  0.97809  1.0000
  C  Sn15      1.0  0.27735  0.68886  0.91884  1.0000
  C   C104      1.0  0.27853  0.71664  0.98976  1.0000
  C  Sn16      1.0  0.30358  0.72273  0.11866  1.0000
  O  Te13      1.0  0.34428  0.70528  0.30661  1.0000
  O  Te14      1.0  0.29648  0.63828  0.90916  1.0000
  O  Te15      1.0  0.25652  0.68367  0.79004  1.0000
  O  Te16      1.0  0.30434  0.75068  0.18757  1.0000
  Mg  Mg7       1.0  0.26414  0.64201  0.73631  1.0000
  Mg  Mg8       1.0  0.33668  0.74697  0.36035  1.0000
  C  Sn17      1.0  0.58902  0.41868  0.12395  1.0000
  C   C105      1.0  0.59319  0.44519  0.03990  1.0000
  C  Sn18      1.0  0.61111  0.44710  0.91007  1.0000
  C  Sn19      1.0  0.62964  0.42242  0.86317  1.0000
  C   C106      1.0  0.62547  0.39594  0.94717  1.0000
  C  Sn20      1.0  0.60756  0.39400  0.07705  1.0000
  O  Te17      1.0  0.56657  0.41685  0.25336  1.0000
  O  Te18      1.0  0.61485  0.47383  0.82793  1.0000
  O  Te19      1.0  0.65211  0.42428  0.73364  1.0000
  O  Te20      1.0  0.60381  0.36729  0.15914  1.0000
  Mg  Mg9       1.0  0.64849  0.46540  0.65954  1.0000
  Mg  Mg10      1.0  0.57017  0.37569  0.32749  1.0000
  C  Sn21      1.0  0.07839  0.91141  0.99832  1.0000
  C   C107      1.0  0.08789  0.93862  0.07605  1.0000
  C  Sn22      1.0  0.11816  0.94603  0.13069  1.0000
  C  Sn23      1.0  0.14388  0.92624  0.10704  1.0000
  C   C108      1.0  0.13877  0.89947  0.02932  1.0000
  C  Sn24      1.0  0.10410  0.89163  0.97467  1.0000
  O  Te21      1.0  0.04793  0.90446  0.94468  1.0000
  O  Te22      1.0  0.12267  0.97294  0.20812  1.0000
  O  Te23      1.0  0.17435  0.93321  0.16076  1.0000
  O  Te24      1.0  0.09959  0.86474  0.89725  1.0000
  Mg  Mg11      1.0  0.16856  0.97247  0.25945  1.0000
  Mg  Mg12      1.0  0.05372  0.86519  0.84580  1.0000
  C  Sn25      1.0  0.78995  0.19108  0.10327  1.0000
  C   C109      1.0  0.79164  0.21842  0.02605  1.0000
  C  Sn26      1.0  0.80905  0.22294  0.89623  1.0000
  C  Sn27      1.0  0.82958  0.20007  0.84238  1.0000
  C   C110      1.0  0.82788  0.17275  0.91956  1.0000
  C  Sn28      1.0  0.81048  0.16821  0.04941  1.0000
  O  Te25      1.0  0.76796  0.18663  0.23280  1.0000
  O  Te26      1.0  0.81032  0.25046  0.82100  1.0000
  O  Te27      1.0  0.85158  0.20454  0.71274  1.0000
  O  Te28      1.0  0.80921  0.14070  0.12461  1.0000
  Mg  Mg13      1.0  0.84427  0.24580  0.64950  1.0000
  Mg  Mg14      1.0  0.77525  0.14533  0.29605  1.0000
  C  Sn29      1.0  0.72764  0.32150  0.97419  1.0000
  C   C111      1.0  0.73184  0.29412  0.04639  1.0000
  C  Sn30      1.0  0.70375  0.28264  0.11585  1.0000
  C  Sn31      1.0  0.67525  0.29927  0.11300  1.0000
  C   C112      1.0  0.67545  0.32704  0.04081  1.0000
  C  Sn32      1.0  0.69914  0.33813  0.97134  1.0000
  O  Te29      1.0  0.75600  0.33254  0.90547  1.0000
  O  Te30      1.0  0.70414  0.25480  0.18738  1.0000
  O  Te31      1.0  0.64688  0.28820  0.18180  1.0000
  O  Te32      1.0  0.69875  0.36594  0.89981  1.0000
  Mg  Mg15      1.0  0.65948  0.24923  0.26486  1.0000
  Mg  Mg16      1.0  0.74339  0.37153  0.82222  1.0000
  C  Sn33      1.0  0.40466  0.40151  0.13366  1.0000
  C   C113      1.0  0.37616  0.39665  0.05218  1.0000
  C  Sn34      1.0  0.36241  0.41502  0.92603  1.0000
  C  Sn35      1.0  0.38196  0.43915  0.88027  1.0000
  C   C114      1.0  0.41044  0.44399  0.96169  1.0000
  C  Sn36      1.0  0.42421  0.42564  0.08789  1.0000
  O  Te33      1.0  0.41354  0.38245  0.25941  1.0000
  O  Te34      1.0  0.33381  0.40973  0.84642  1.0000
  O  Te35      1.0  0.37305  0.45822  0.75440  1.0000
  O  Te36      1.0  0.45280  0.43092  0.16746  1.0000
  Mg  Mg17      1.0  0.33197  0.44186  0.68270  1.0000
  Mg  Mg18      1.0  0.45466  0.39880  0.33113  1.0000
  C  Sn37      1.0  0.86182  0.93112  0.09520  1.0000
  C   C115      1.0  0.86717  0.90476  0.01215  1.0000
  C  Sn38      1.0  0.89323  0.89724  0.95195  1.0000
  C  Sn39      1.0  0.91888  0.91688  0.97532  1.0000
  C   C116      1.0  0.91793  0.94364  0.05835  1.0000
  C  Sn40      1.0  0.88747  0.95077  0.11858  1.0000
  O  Te37      1.0  0.83117  0.93778  0.15436  1.0000
  O  Te38      1.0  0.89799  0.87076  0.86926  1.0000
  O  Te39      1.0  0.94955  0.91021  0.91608  1.0000
  O  Te40      1.0  0.88271  0.97723  0.20124  1.0000
  Mg  Mg19      1.0  0.94407  0.87150  0.81148  1.0000
  Mg  Mg20      1.0  0.83664  0.97650  0.25914  1.0000
  C  Sn41      1.0  0.17888  0.22207  0.92900  1.0000
  C   C117      1.0  0.21195  0.22172  0.01323  1.0000
  C  Sn42      1.0  0.22488  0.19504  0.06277  1.0000
  C  Sn43      1.0  0.20882  0.16857  0.02731  1.0000
  C   C118      1.0  0.17577  0.16892  0.94310  1.0000
  C  Sn44      1.0  0.16282  0.19560  0.89353  1.0000
  O  Te41      1.0  0.16639  0.24900  0.88063  1.0000
  O  Te42      1.0  0.25356  0.19483  0.14687  1.0000
  O  Te43      1.0  0.22133  0.14163  0.07576  1.0000
  O  Te44      1.0  0.13416  0.19581  0.80946  1.0000
  Mg  Mg21      1.0  0.26103  0.15268  0.18712  1.0000
  Mg  Mg22      1.0  0.12667  0.23795  0.76907  1.0000
  C  Sn45      1.0  0.29686  0.32957  0.01794  1.0000
  C   C119      1.0  0.32586  0.32812  0.09890  1.0000
  C  Sn46      1.0  0.33858  0.30110  0.14392  1.0000
  C  Sn47      1.0  0.32197  0.27498  0.10717  1.0000
  C   C120      1.0  0.29300  0.27643  0.02624  1.0000
  C  Sn48      1.0  0.27585  0.30303  0.98119  1.0000
  O  Te45      1.0  0.28020  0.35641  0.97407  1.0000
  O  Te46      1.0  0.36760  0.30021  0.22481  1.0000
  O  Te47      1.0  0.33426  0.24771  0.15111  1.0000
  O  Te48      1.0  0.24685  0.30393  0.90033  1.0000
  Mg  Mg23      1.0  0.37459  0.25782  0.25935  1.0000
  Mg  Mg24      1.0  0.23985  0.34630  0.86565  1.0000
  C  Sn49      1.0  0.59553  0.59749  0.12730  1.0000
  C   C121      1.0  0.62452  0.60256  0.04386  1.0000
  C  Sn50      1.0  0.63017  0.58375  0.91554  1.0000
  C  Sn51      1.0  0.61083  0.55980  0.86959  1.0000
  C   C122      1.0  0.58187  0.55474  0.95299  1.0000
  C  Sn52      1.0  0.57620  0.57354  0.08135  1.0000
  O  Te49      1.0  0.58595  0.61617  0.25520  1.0000
  O  Te50      1.0  0.65924  0.58925  0.83399  1.0000
  O  Te51      1.0  0.62044  0.54112  0.74158  1.0000
  O  Te52      1.0  0.54714  0.56805  0.16286  1.0000
  Mg  Mg25      1.0  0.66197  0.55764  0.66773  1.0000
  Mg  Mg26      1.0  0.54438  0.59966  0.32907  1.0000
  C  Sn53      1.0  0.08641  0.08263  0.91243  1.0000
  C   C123      1.0  0.09163  0.05600  0.99235  1.0000
  C  Sn54      1.0  0.11863  0.05433  0.11571  1.0000
  C  Sn55      1.0  0.13637  0.07940  0.16020  1.0000
  C   C124      1.0  0.13114  0.10602  0.08033  1.0000
  C  Sn56      1.0  0.10415  0.10770  0.95693  1.0000
  O  Te53      1.0  0.06370  0.08421  0.78947  1.0000
  O  Te54      1.0  0.12343  0.02746  0.19381  1.0000
  O  Te55      1.0  0.15909  0.07781  0.28327  1.0000
  O  Te56      1.0  0.09933  0.13455  0.87887  1.0000
  Mg  Mg27      1.0  0.15702  0.03635  0.35379  1.0000
  Mg  Mg28      1.0  0.06574  0.12569  0.71895  1.0000
  C  Sn57      1.0  0.79709  0.82643  0.09847  1.0000
  C   C125      1.0  0.82688  0.82524  0.01821  1.0000
  C  Sn58      1.0  0.82945  0.80253  0.90545  1.0000
  C  Sn59      1.0  0.80615  0.78099  0.87213  1.0000
  C   C126      1.0  0.77638  0.78219  0.95234  1.0000
  C  Sn60      1.0  0.77379  0.80489  0.06515  1.0000
  O  Te57      1.0  0.79064  0.84891  0.21072  1.0000
  O  Te58      1.0  0.85940  0.80180  0.82678  1.0000
  O  Te59      1.0  0.81263  0.75850  0.75978  1.0000
  O  Te60      1.0  0.74386  0.80563  0.14377  1.0000
  Mg  Mg29      1.0  0.85686  0.76685  0.68384  1.0000
  Mg  Mg30      1.0  0.74637  0.84058  0.28666  1.0000
  C  Sn61      1.0  0.71254  0.68963  0.92037  1.0000
  C   C127      1.0  0.71197  0.71723  0.99420  1.0000
  C  Sn62      1.0  0.69510  0.72355  0.12495  1.0000
  C  Sn63      1.0  0.67398  0.70141  0.18321  1.0000
  C   C128      1.0  0.67456  0.67383  0.10942  1.0000
  C  Sn64      1.0  0.69142  0.66749  0.97862  1.0000
  O  Te61      1.0  0.73400  0.68421  0.78982  1.0000
  O  Te62      1.0  0.69497  0.75131  0.19675  1.0000
  O  Te63      1.0  0.65251  0.70686  0.31386  1.0000
  O  Te64      1.0  0.69156  0.63975  0.90686  1.0000
  Mg  Mg31      1.0  0.66137  0.74808  0.37129  1.0000
  Mg  Mg32      1.0  0.72516  0.64295  0.73238  1.0000
  C  Sn65      1.0  0.41223  0.58338  0.61701  1.0000
  C   C129      1.0  0.40802  0.55671  0.53645  1.0000
  C  Sn66      1.0  0.38600  0.55424  0.41059  1.0000
  C  Sn67      1.0  0.36782  0.57895  0.36419  1.0000
  C   C130      1.0  0.37203  0.60561  0.44471  1.0000
  C  Sn68      1.0  0.39404  0.60809  0.57061  1.0000
  O  Te65      1.0  0.43438  0.58535  0.74248  1.0000
  O  Te66      1.0  0.38221  0.52734  0.33189  1.0000
  O  Te67      1.0  0.34565  0.57697  0.23861  1.0000
  O  Te68      1.0  0.39784  0.63497  0.64926  1.0000
  Mg  Mg33      1.0  0.34907  0.53563  0.16823  1.0000
  Mg  Mg34      1.0  0.43098  0.62671  0.81288  1.0000
  C  Sn69      1.0  0.86986  0.07713  0.68545  1.0000
  C   C131      1.0  0.87438  0.10329  0.59850  1.0000
  C  Sn70      1.0  0.89702  0.10504  0.46989  1.0000
  C  Sn71      1.0  0.91553  0.08012  0.42719  1.0000
  C   C132      1.0  0.91101  0.05397  0.51409  1.0000
  C  Sn72      1.0  0.88837  0.05220  0.64276  1.0000
  O  Te69      1.0  0.84708  0.07588  0.81358  1.0000
  O  Te70      1.0  0.90112  0.13144  0.38480  1.0000
  O  Te71      1.0  0.93832  0.08139  0.29895  1.0000
  O  Te72      1.0  0.88427  0.02582  0.72780  1.0000
  Mg  Mg35      1.0  0.93511  0.12224  0.21966  1.0000
  Mg  Mg36      1.0  0.85027  0.03499  0.89289  1.0000
  C  Sn73      1.0  0.16353  0.79150  0.40581  1.0000
  C   C133      1.0  0.16416  0.81912  0.47916  1.0000
  C  Sn74      1.0  0.19208  0.82955  0.54884  1.0000
  C  Sn75      1.0  0.21996  0.81202  0.54506  1.0000
  C   C134      1.0  0.21932  0.78442  0.47172  1.0000
  C  Sn76      1.0  0.19141  0.77396  0.40202  1.0000
  O  Te73      1.0  0.13535  0.78151  0.33690  1.0000
  O  Te74      1.0  0.19213  0.85724  0.62153  1.0000
  O  Te75      1.0  0.24815  0.82203  0.61406  1.0000
  O  Te76      1.0  0.19135  0.74630  0.32935  1.0000
  Mg  Mg37      1.0  0.23632  0.86122  0.69884  1.0000
  Mg  Mg38      1.0  0.14718  0.74230  0.25193  1.0000
  C  Sn77      1.0  0.32325  0.70358  0.67753  1.0000
  C   C135      1.0  0.32256  0.67549  0.61000  1.0000
  C  Sn78      1.0  0.30137  0.66879  0.48516  1.0000
  C  Sn79      1.0  0.28044  0.69063  0.42652  1.0000
  C   C136      1.0  0.28113  0.71870  0.49402  1.0000
  C  Sn80      1.0  0.30231  0.72541  0.61889  1.0000
  O  Te77      1.0  0.34463  0.70979  0.80223  1.0000
  O  Te78      1.0  0.30112  0.64056  0.41960  1.0000
  O  Te79      1.0  0.25904  0.68440  0.30173  1.0000
  O  Te80      1.0  0.30258  0.75363  0.68441  1.0000
  Mg  Mg39      1.0  0.26769  0.64275  0.25160  1.0000
  Mg  Mg40      1.0  0.33601  0.75146  0.85235  1.0000
  C  Sn81      1.0  0.58321  0.41808  0.63593  1.0000
  C   C137      1.0  0.58916  0.44415  0.55025  1.0000
  C  Sn82      1.0  0.61241  0.44524  0.42432  1.0000
  C  Sn83      1.0  0.63008  0.41974  0.38309  1.0000
  C   C138      1.0  0.62412  0.39369  0.46873  1.0000
  C  Sn84      1.0  0.60088  0.39258  0.59471  1.0000
  O  Te81      1.0  0.55985  0.41750  0.76137  1.0000
  O  Te82      1.0  0.61794  0.47156  0.34045  1.0000
  O  Te83      1.0  0.65345  0.42034  0.25754  1.0000
  O  Te84      1.0  0.59534  0.36628  0.67854  1.0000
  Mg  Mg41      1.0  0.65224  0.46135  0.17902  1.0000
  Mg  Mg42      1.0  0.56104  0.37646  0.83991  1.0000
  C  Sn85      1.0  0.12559  0.94498  0.59052  1.0000
  C   C139      1.0  0.09566  0.94878  0.52148  1.0000
  C  Sn86      1.0  0.07818  0.92461  0.46961  1.0000
  C  Sn87      1.0  0.09087  0.89605  0.48719  1.0000
  C   C140      1.0  0.12078  0.89227  0.55621  1.0000
  C  Sn88      1.0  0.13828  0.91642  0.60810  1.0000
  O  Te85      1.0  0.14264  0.96946  0.64153  1.0000
  O  Te86      1.0  0.04832  0.92896  0.40091  1.0000
  O  Te87      1.0  0.07379  0.87157  0.43610  1.0000
  O  Te88      1.0  0.16812  0.91209  0.67678  1.0000
  Mg  Mg43      1.0  0.03418  0.88872  0.34999  1.0000
  Mg  Mg44      1.0  0.18227  0.95230  0.72782  1.0000
  C  Sn89      1.0  0.78344  0.18736  0.63450  1.0000
  C   C141      1.0  0.78246  0.21469  0.55712  1.0000
  C  Sn90      1.0  0.80237  0.22070  0.42078  1.0000
  C  Sn91      1.0  0.82368  0.19895  0.36043  1.0000
  C   C142      1.0  0.82465  0.17164  0.43776  1.0000
  C  Sn92      1.0  0.80476  0.16560  0.57415  1.0000
  O  Te89      1.0  0.76333  0.18182  0.77062  1.0000
  O  Te90      1.0  0.80097  0.24819  0.34552  1.0000
  O  Te91      1.0  0.84380  0.20451  0.22419  1.0000
  O  Te92      1.0  0.80615  0.13814  0.64937  1.0000
  Mg  Mg45      1.0  0.83310  0.24525  0.16370  1.0000
  Mg  Mg46      1.0  0.77402  0.14104  0.83114  1.0000
  C  Sn93      1.0  0.69722  0.32309  0.44596  1.0000
  C   C143      1.0  0.66841  0.32323  0.53583  1.0000
  C  Sn94      1.0  0.66230  0.30210  0.65724  1.0000
  C  Sn95      1.0  0.68547  0.28038  0.68958  1.0000
  C   C144      1.0  0.71426  0.28025  0.59976  1.0000
  C  Sn96      1.0  0.72040  0.30137  0.47830  1.0000
  O  Te93      1.0  0.70283  0.34443  0.32517  1.0000
  O  Te94      1.0  0.63332  0.30268  0.74543  1.0000
  O  Te95      1.0  0.67984  0.25903  0.81048  1.0000
  O  Te96      1.0  0.74936  0.30079  0.39016  1.0000
  Mg  Mg47      1.0  0.63678  0.26897  0.89774  1.0000
  Mg  Mg48      1.0  0.74593  0.33451  0.23790  1.0000
  C  Sn97      1.0  0.40191  0.40397  0.62712  1.0000
  C   C145      1.0  0.37363  0.39921  0.54359  1.0000
  C  Sn98      1.0  0.36480  0.41789  0.41591  1.0000
  C  Sn99      1.0  0.38468  0.44183  0.37068  1.0000
  C   C146      1.0  0.41295  0.44658  0.45417  1.0000
  C  Sn100     1.0  0.42179  0.42791  0.58190  1.0000
  O  Te97      1.0  0.41026  0.38502  0.75438  1.0000
  O  Te98      1.0  0.33640  0.41269  0.33425  1.0000
  O  Te99      1.0  0.37630  0.46079  0.24331  1.0000
  O  Te100     1.0  0.45017  0.43310  0.66351  1.0000
  Mg  Mg49      1.0  0.33531  0.44462  0.16904  1.0000
  Mg  Mg50      1.0  0.45129  0.40118  0.82867  1.0000
  C  Sn101     1.0  0.91323  0.91924  0.41450  1.0000
  C   C147      1.0  0.90782  0.94570  0.49646  1.0000
  C  Sn102     1.0  0.88455  0.94763  0.62192  1.0000
  C  Sn103     1.0  0.86631  0.92260  0.66646  1.0000
  C   C148      1.0  0.87172  0.89615  0.58454  1.0000
  C  Sn104     1.0  0.89499  0.89420  0.45904  1.0000
  O  Te101     1.0  0.93662  0.91780  0.28946  1.0000
  O  Te102     1.0  0.87957  0.97433  0.70204  1.0000
  O  Te103     1.0  0.84291  0.92405  0.79160  1.0000
  O  Te104     1.0  0.89997  0.86752  0.37895  1.0000
  Mg  Mg51      1.0  0.84499  0.96529  0.86442  1.0000
  Mg  Mg52      1.0  0.93456  0.87653  0.21663  1.0000
  C  Sn105     1.0  0.18057  0.22126  0.43909  1.0000
  C   C149      1.0  0.20959  0.21962  0.51974  1.0000
  C  Sn106     1.0  0.22230  0.19249  0.56285  1.0000
  C  Sn107     1.0  0.20566  0.16646  0.52445  1.0000
  C   C150      1.0  0.17667  0.16811  0.44383  1.0000
  C  Sn108     1.0  0.16393  0.19523  0.40070  1.0000
  O  Te105     1.0  0.16831  0.24862  0.39716  1.0000
  O  Te106     1.0  0.25134  0.19140  0.64347  1.0000
  O  Te107     1.0  0.21795  0.13909  0.56647  1.0000
  O  Te108     1.0  0.13491  0.19632  0.32010  1.0000
  Mg  Mg53      1.0  0.25831  0.14894  0.67510  1.0000
  Mg  Mg54      1.0  0.12793  0.23877  0.28834  1.0000
  C  Sn109     1.0  0.33620  0.29065  0.61265  1.0000
  C   C151      1.0  0.33426  0.31906  0.54964  1.0000
  C  Sn110     1.0  0.30543  0.32975  0.49147  1.0000
  C  Sn111     1.0  0.27795  0.31169  0.49647  1.0000
  C   C152      1.0  0.27989  0.28330  0.55948  1.0000
  C  Sn112     1.0  0.30872  0.27258  0.61766  1.0000
  O  Te109     1.0  0.36527  0.28041  0.67015  1.0000
  O  Te110     1.0  0.30409  0.35823  0.42898  1.0000
  O  Te111     1.0  0.24887  0.32195  0.43890  1.0000
  O  Te112     1.0  0.31007  0.24413  0.68014  1.0000
  Mg  Mg55      1.0  0.25904  0.36226  0.36528  1.0000
  Mg  Mg56      1.0  0.35509  0.24007  0.74395  1.0000
  C  Sn113     1.0  0.62972  0.57470  0.35060  1.0000
  C   C153      1.0  0.62576  0.60095  0.43668  1.0000
  C  Sn114     1.0  0.60311  0.60313  0.56502  1.0000
  C  Sn115     1.0  0.58404  0.57854  0.60831  1.0000
  C   C154      1.0  0.58801  0.55231  0.52228  1.0000
  C  Sn116     1.0  0.61065  0.55012  0.39389  1.0000
  O  Te113     1.0  0.65251  0.57303  0.22273  1.0000
  O  Te114     1.0  0.59957  0.62960  0.64924  1.0000
  O  Te115     1.0  0.56123  0.58024  0.73630  1.0000
  O  Te116     1.0  0.61420  0.52367  0.30972  1.0000
  Mg  Mg57      1.0  0.56532  0.62104  0.81433  1.0000
  Mg  Mg58      1.0  0.64845  0.53220  0.14468  1.0000
  C  Sn117     1.0  0.11748  0.06126  0.67520  1.0000
  C   C155      1.0  0.08868  0.05725  0.59510  1.0000
  C  Sn118     1.0  0.08000  0.07603  0.46755  1.0000
  C  Sn119     1.0  0.10055  0.09929  0.41897  1.0000
  C   C156      1.0  0.12933  0.10328  0.49903  1.0000
  C  Sn120     1.0  0.13803  0.08452  0.62662  1.0000
  O  Te117     1.0  0.12567  0.04222  0.80238  1.0000
  O  Te118     1.0  0.05108  0.07159  0.38935  1.0000
  O  Te119     1.0  0.09233  0.11833  0.29168  1.0000
  O  Te120     1.0  0.16693  0.08895  0.70477  1.0000
  Mg  Mg59      1.0  0.05046  0.10333  0.22280  1.0000
  Mg  Mg60      1.0  0.16758  0.05722  0.87128  1.0000
  C  Sn121     1.0  0.77757  0.81748  0.54011  1.0000
  C   C157      1.0  0.77930  0.79006  0.46462  1.0000
  C  Sn122     1.0  0.80806  0.78011  0.39516  1.0000
  C  Sn123     1.0  0.83566  0.79793  0.40137  1.0000
  C   C158      1.0  0.83392  0.82534  0.47685  1.0000
  C  Sn124     1.0  0.80517  0.83531  0.54632  1.0000
  O  Te121     1.0  0.74857  0.82699  0.60876  1.0000
  O  Te122     1.0  0.80920  0.75261  0.32030  1.0000
  O  Te123     1.0  0.86467  0.78840  0.33264  1.0000
  O  Te124     1.0  0.80402  0.86278  0.62116  1.0000
  Mg  Mg61      1.0  0.85422  0.74931  0.24433  1.0000
  Mg  Mg62      1.0  0.75903  0.86609  0.69725  1.0000
  C  Sn125     1.0  0.71646  0.68657  0.40428  1.0000
  C   C159      1.0  0.71588  0.71414  0.47835  1.0000
  C  Sn126     1.0  0.69463  0.72000  0.60927  1.0000
  C  Sn127     1.0  0.67354  0.69783  0.66745  1.0000
  C   C160      1.0  0.67414  0.67027  0.59342  1.0000
  C  Sn128     1.0  0.69537  0.66439  0.46246  1.0000
  O  Te125     1.0  0.73790  0.68120  0.27356  1.0000
  O  Te126     1.0  0.69448  0.74774  0.68130  1.0000
  O  Te127     1.0  0.65210  0.70322  0.79827  1.0000
  O  Te128     1.0  0.69553  0.63667  0.39046  1.0000
  Mg  Mg63      1.0  0.66092  0.74444  0.85600  1.0000
  Mg  Mg64      1.0  0.72909  0.63995  0.21582  1.0000
