data_image0
_chemical_formula_structural       C9H5C3HC14H8CN2CH2C9H5C3HC8H4CN2CH2C9H5C3HC8H4CN2CH2C9H5C3HC8H4CN2CH2C2HC2HC2HC2HC3HC9H5C14H8CN2CH2C9H5C9H5C3N2CH2C9H5C3HC3N2CH2C3HC9H5C3N2CH2C2HC2HC2HC2HSnCSn2CSnTe4Mg2SnCSn2CSnTe4Mg2SnCSn2CSnTe4Mg2SnCSn2CSnTe4Mg2SnCSn2CSnTe4Mg2SnCSn2CSnTe4Mg2SnCSn2CSnTe4Mg2SnCSn2CSnTe4Mg2SnCSn2CSnTe4Mg2SnCSn2CSnTe4Mg2SnCSn2CSnTe4Mg2SnCSn2CSnTe4Mg2SnCSn2CSnTe4Mg2SnCSn2CSnTe4Mg2SnCSn2CSnTe4Mg2SnCSn2CSnTe4Mg2
_chemical_formula_sum              "C224 H104 N16 Sn64 Te64 Mg32"
_cell_length_a       41.9761
_cell_length_b       45.7138
_cell_length_c       8.10521
_cell_angle_alpha    89.8665
_cell_angle_beta     88.6932
_cell_angle_gamma    90.0134

_symmetry_space_group_name_H-M    'P1'
_space_group_IT_number       1

loop_
  _space_group_symop_operation_xyz
  'x, y, z'

loop_
  _atom_site_type_symbol
  _atom_site_label
  _atom_site_symmetry_multiplicity
  _atom_site_fract_x
  _atom_site_fract_y
  _atom_site_fract_z
  _atom_site_occupancy
  C   C1        1.0  0.53447  0.52719  0.96655  1.0000
  C   C2        1.0  0.48383  0.55244  0.93357  1.0000
  C   C3        1.0  0.43252  0.52550  0.98057  1.0000
  C   C4        1.0  0.41235  0.55193  0.98065  1.0000
  C   C5        1.0  0.38311  0.55121  0.89887  1.0000
  C   C6        1.0  0.36287  0.57521  0.89903  1.0000
  C   C7        1.0  0.37086  0.60121  0.98102  1.0000
  C   C8        1.0  0.40032  0.60231  0.06103  1.0000
  C   C9        1.0  0.42036  0.57808  0.06201  1.0000
  H   H1        1.0  0.47085  0.57238  0.90702  1.0000
  H   H2        1.0  0.37689  0.53179  0.82936  1.0000
  H   H3        1.0  0.34058  0.57474  0.83339  1.0000
  H   H4        1.0  0.40738  0.62202  0.12575  1.0000
  H   H5        1.0  0.44216  0.57903  0.13170  1.0000
  C   C10       1.0  0.03470  0.02694  0.07024  1.0000
  C   C11       1.0  0.98425  0.05309  0.09978  1.0000
  C   C12       1.0  0.93284  0.02700  0.05488  1.0000
  H   H6        1.0  0.97135  0.07324  0.12475  1.0000
  C   C13       1.0  0.17192  0.82664  0.96867  1.0000
  C   C14       1.0  0.16571  0.79884  0.90184  1.0000
  C   C15       1.0  0.18786  0.77636  0.91276  1.0000
  C   C16       1.0  0.21732  0.78123  0.98915  1.0000
  C   C17       1.0  0.22371  0.80933  0.05437  1.0000
  C   C18       1.0  0.20135  0.83146  0.04482  1.0000
  C   C19       1.0  0.23998  0.75860  0.00156  1.0000
  C   C20       1.0  0.25960  0.73898  0.01419  1.0000
  C   C21       1.0  0.28193  0.71609  0.02818  1.0000
  C   C22       1.0  0.30995  0.71979  0.11906  1.0000
  C   C23       1.0  0.33149  0.69690  0.13334  1.0000
  C   C24       1.0  0.32627  0.66993  0.05473  1.0000
  C   C25       1.0  0.29838  0.66631  0.96309  1.0000
  C   C26       1.0  0.27650  0.68881  0.95091  1.0000
  H   H7        1.0  0.14332  0.79503  0.83998  1.0000
  H   H8        1.0  0.18312  0.75495  0.86042  1.0000
  H   H9        1.0  0.24631  0.81300  0.11402  1.0000
  H   H10       1.0  0.20574  0.85297  0.09673  1.0000
  H   H11       1.0  0.31408  0.74051  0.18047  1.0000
  H   H12       1.0  0.35263  0.69975  0.20698  1.0000
  H   H13       1.0  0.29462  0.64544  0.90229  1.0000
  H   H14       1.0  0.25508  0.68605  0.87973  1.0000
  C   C27       1.0  0.14826  0.84988  0.96008  1.0000
  N   N1        1.0  0.15163  0.87367  0.04444  1.0000
  N   N2        1.0  0.34867  0.62401  0.97134  1.0000
  C   C28       1.0  0.34937  0.64632  0.06935  1.0000
  H   H15       1.0  0.87443  0.15229  0.84974  1.0000
  H   H16       1.0  0.63593  0.35094  0.18183  1.0000
  C   C29       1.0  0.46720  0.47171  0.97087  1.0000
  C   C30       1.0  0.51827  0.44632  0.94587  1.0000
  C   C31       1.0  0.56926  0.47365  0.98579  1.0000
  C   C32       1.0  0.58965  0.44734  0.98815  1.0000
  C   C33       1.0  0.61895  0.44763  0.89972  1.0000
  C   C34       1.0  0.63908  0.42354  0.89917  1.0000
  C   C35       1.0  0.63103  0.39799  0.98807  1.0000
  C   C36       1.0  0.60177  0.39751  0.07703  1.0000
  C   C37       1.0  0.58172  0.42176  0.07749  1.0000
  H   H17       1.0  0.53152  0.42619  0.92573  1.0000
  H   H18       1.0  0.62525  0.46667  0.82515  1.0000
  H   H19       1.0  0.66128  0.42358  0.82740  1.0000
  H   H20       1.0  0.59491  0.37830  0.14884  1.0000
  H   H21       1.0  0.55998  0.42135  0.15302  1.0000
  C   C38       1.0  0.96636  0.97263  0.06726  1.0000
  C   C39       1.0  0.01657  0.94636  0.09626  1.0000
  C   C40       1.0  0.06856  0.97279  0.05793  1.0000
  H   H22       1.0  0.02912  0.92604  0.11897  1.0000
  C   C41       1.0  0.76620  0.24394  0.99149  1.0000
  C   C42       1.0  0.74592  0.26303  0.00751  1.0000
  C   C43       1.0  0.72265  0.28518  0.02380  1.0000
  C   C44       1.0  0.69506  0.28089  0.12399  1.0000
  C   C45       1.0  0.67257  0.30307  0.14148  1.0000
  C   C46       1.0  0.67644  0.32982  0.05702  1.0000
  C   C47       1.0  0.70379  0.33393  0.95512  1.0000
  C   C48       1.0  0.72661  0.31222  0.93975  1.0000
  H   H23       1.0  0.69201  0.26033  0.19020  1.0000
  H   H24       1.0  0.65174  0.29975  0.22200  1.0000
  H   H25       1.0  0.70632  0.35463  0.88981  1.0000
  H   H26       1.0  0.74776  0.31547  0.86213  1.0000
  C   C49       1.0  0.85582  0.15052  0.94695  1.0000
  N   N3        1.0  0.85351  0.12861  0.04820  1.0000
  N   N4        1.0  0.65303  0.37503  0.97549  1.0000
  C   C50       1.0  0.65282  0.35305  0.07650  1.0000
  H   H27       1.0  0.12799  0.84576  0.87988  1.0000
  H   H28       1.0  0.36668  0.64864  0.16835  1.0000
  C   C51       1.0  0.53556  0.47280  0.97038  1.0000
  C   C52       1.0  0.48569  0.44579  0.94578  1.0000
  C   C53       1.0  0.43335  0.47151  0.98831  1.0000
  C   C54       1.0  0.41391  0.44460  0.99642  1.0000
  C   C55       1.0  0.38450  0.44403  0.91612  1.0000
  C   C56       1.0  0.36539  0.41928  0.91986  1.0000
  C   C57       1.0  0.37455  0.39392  0.00531  1.0000
  C   C58       1.0  0.40394  0.39422  0.08626  1.0000
  C   C59       1.0  0.42297  0.41917  0.08260  1.0000
  H   H29       1.0  0.47345  0.42526  0.92425  1.0000
  H   H30       1.0  0.37738  0.46288  0.84379  1.0000
  H   H31       1.0  0.34327  0.41847  0.85280  1.0000
  H   H32       1.0  0.41181  0.37505  0.15394  1.0000
  H   H33       1.0  0.44487  0.41945  0.15167  1.0000
  C   C60       1.0  0.03467  0.97253  0.07152  1.0000
  C   C61       1.0  0.98401  0.94638  0.09330  1.0000
  C   C62       1.0  0.93266  0.97304  0.05102  1.0000
  H   H34       1.0  0.97110  0.92604  0.11312  1.0000
  C   C63       1.0  0.24060  0.24008  0.00742  1.0000
  C   C64       1.0  0.26167  0.25818  0.02670  1.0000
  C   C65       1.0  0.28501  0.28006  0.04469  1.0000
  C   C66       1.0  0.31285  0.27506  0.13535  1.0000
  C   C67       1.0  0.33523  0.29723  0.15249  1.0000
  C   C68       1.0  0.33090  0.32467  0.07716  1.0000
  C   C69       1.0  0.30312  0.32959  0.98642  1.0000
  C   C70       1.0  0.28051  0.30785  0.97097  1.0000
  H   H35       1.0  0.31614  0.25396  0.19463  1.0000
  H   H36       1.0  0.35621  0.29351  0.22626  1.0000
  H   H37       1.0  0.30014  0.35088  0.92863  1.0000
  H   H38       1.0  0.25917  0.31164  0.90037  1.0000
  C   C71       1.0  0.14837  0.14971  0.94786  1.0000
  N   N5        1.0  0.14949  0.12729  0.04531  1.0000
  N   N6        1.0  0.35320  0.37054  0.99737  1.0000
  C   C72       1.0  0.35449  0.34787  0.09286  1.0000
  H   H39       1.0  0.87303  0.84650  0.86475  1.0000
  H   H40       1.0  0.62735  0.65382  0.18395  1.0000
  C   C73       1.0  0.46632  0.52611  0.96410  1.0000
  C   C74       1.0  0.51637  0.55297  0.93554  1.0000
  C   C75       1.0  0.56809  0.52763  0.98443  1.0000
  C   C76       1.0  0.58715  0.55475  0.98901  1.0000
  C   C77       1.0  0.61691  0.55561  0.90518  1.0000
  C   C78       1.0  0.63607  0.58033  0.90945  1.0000
  C   C79       1.0  0.62649  0.60543  0.99782  1.0000
  C   C80       1.0  0.59654  0.60493  0.08038  1.0000
  C   C81       1.0  0.57751  0.58001  0.07665  1.0000
  H   H41       1.0  0.52900  0.57332  0.91120  1.0000
  H   H42       1.0  0.62433  0.53696  0.83055  1.0000
  H   H43       1.0  0.65869  0.58127  0.84155  1.0000
  H   H44       1.0  0.58824  0.62387  0.15006  1.0000
  H   H45       1.0  0.55517  0.57962  0.14724  1.0000
  C   C82       1.0  0.96652  0.02702  0.07095  1.0000
  C   C83       1.0  0.01680  0.05306  0.09873  1.0000
  C   C84       1.0  0.06852  0.02681  0.05350  1.0000
  H   H46       1.0  0.02955  0.07323  0.12235  1.0000
  C   C85       1.0  0.82899  0.82743  0.96404  1.0000
  C   C86       1.0  0.83455  0.79979  0.89281  1.0000
  C   C87       1.0  0.81189  0.77767  0.90637  1.0000
  C   C88       1.0  0.78248  0.78281  0.98961  1.0000
  C   C89       1.0  0.77674  0.81083  0.05872  1.0000
  C   C90       1.0  0.79963  0.83254  0.04705  1.0000
  C   C91       1.0  0.75909  0.76074  0.00590  1.0000
  C   C92       1.0  0.73834  0.74214  0.02483  1.0000
  H   H47       1.0  0.85690  0.79577  0.82582  1.0000
  H   H48       1.0  0.81635  0.75639  0.85099  1.0000
  H   H49       1.0  0.75414  0.81481  0.12282  1.0000
  H   H50       1.0  0.79566  0.85395  0.10196  1.0000
  C   C93       1.0  0.85309  0.85033  0.95228  1.0000
  N   N7        1.0  0.85028  0.87364  0.04177  1.0000
  N   N8        1.0  0.64806  0.62875  0.99106  1.0000
  C   C94       1.0  0.64603  0.65119  0.08781  1.0000
  H   H51       1.0  0.13075  0.15222  0.85043  1.0000
  H   H52       1.0  0.37235  0.34503  0.18880  1.0000
  C   C95       1.0  0.41734  0.49835  0.99626  1.0000
  C   C96       1.0  0.51797  0.49971  0.96984  1.0000
  H   H53       1.0  0.39169  0.49811  0.01835  1.0000
  C   C97       1.0  0.58420  0.50094  0.99660  1.0000
  C   C98       1.0  0.48380  0.49917  0.96939  1.0000
  H   H54       1.0  0.60966  0.50145  0.01851  1.0000
  C   C99       1.0  0.91715  0.00011  0.04295  1.0000
  C   C100      1.0  0.01766  0.99973  0.06876  1.0000
  H   H55       1.0  0.89162  0.00023  0.02277  1.0000
  C   C101      1.0  0.08417  0.99980  0.04565  1.0000
  C   C102      1.0  0.98349  0.99979  0.06792  1.0000
  H   H56       1.0  0.10987  0.99977  0.02539  1.0000
  C   C103      1.0  0.53360  0.52764  0.46960  1.0000
  C   C104      1.0  0.48344  0.55394  0.43976  1.0000
  C   C105      1.0  0.43145  0.52768  0.48203  1.0000
  H   H57       1.0  0.47085  0.57419  0.41530  1.0000
  C   C106      1.0  0.03334  0.02797  0.56788  1.0000
  C   C107      1.0  0.98309  0.05458  0.59469  1.0000
  C   C108      1.0  0.93133  0.02859  0.55370  1.0000
  C   C109      1.0  0.91174  0.05542  0.55145  1.0000
  C   C110      1.0  0.92046  0.08093  0.46323  1.0000
  C   C111      1.0  0.90086  0.10551  0.46214  1.0000
  C   C112      1.0  0.87136  0.10540  0.54887  1.0000
  C   C113      1.0  0.86269  0.08006  0.63814  1.0000
  C   C114      1.0  0.88229  0.05563  0.63847  1.0000
  H   H58       1.0  0.97042  0.07495  0.61719  1.0000
  H   H59       1.0  0.94245  0.08102  0.38968  1.0000
  H   H60       1.0  0.90824  0.12463  0.39079  1.0000
  H   H61       1.0  0.84036  0.08043  0.70884  1.0000
  H   H62       1.0  0.87541  0.03668  0.71244  1.0000
  C   C115      1.0  0.16903  0.82702  0.46013  1.0000
  C   C116      1.0  0.16520  0.80080  0.37175  1.0000
  C   C117      1.0  0.18711  0.77814  0.38474  1.0000
  C   C118      1.0  0.21405  0.78132  0.48460  1.0000
  C   C119      1.0  0.21800  0.80783  0.57210  1.0000
  C   C120      1.0  0.19580  0.83004  0.56077  1.0000
  C   C121      1.0  0.23688  0.75886  0.49912  1.0000
  C   C122      1.0  0.25731  0.74007  0.51623  1.0000
  C   C123      1.0  0.28042  0.71789  0.53169  1.0000
  C   C124      1.0  0.30879  0.72269  0.61839  1.0000
  C   C125      1.0  0.33113  0.70041  0.63213  1.0000
  C   C126      1.0  0.32632  0.67300  0.55755  1.0000
  C   C127      1.0  0.29808  0.66833  0.47026  1.0000
  C   C128      1.0  0.27543  0.69018  0.45859  1.0000
  H   H63       1.0  0.14502  0.79835  0.29091  1.0000
  H   H64       1.0  0.18414  0.75805  0.31521  1.0000
  H   H65       1.0  0.23849  0.81026  0.65051  1.0000
  H   H66       1.0  0.19849  0.85023  0.62963  1.0000
  H   H67       1.0  0.31256  0.74377  0.67681  1.0000
  H   H68       1.0  0.35261  0.70412  0.70195  1.0000
  H   H69       1.0  0.29469  0.64716  0.41223  1.0000
  H   H70       1.0  0.25362  0.68655  0.39174  1.0000
  C   C129      1.0  0.14619  0.85091  0.44632  1.0000
  N   N9        1.0  0.14648  0.87234  0.55037  1.0000
  N   N10       1.0  0.34890  0.62716  0.47619  1.0000
  C   C130      1.0  0.34990  0.64976  0.57192  1.0000
  H   H71       1.0  0.86553  0.15131  0.34570  1.0000
  H   H72       1.0  0.62399  0.34666  0.69040  1.0000
  C   C131      1.0  0.46523  0.47343  0.46884  1.0000
  C   C132      1.0  0.51568  0.44720  0.44226  1.0000
  C   C133      1.0  0.56692  0.47328  0.48981  1.0000
  C   C134      1.0  0.58615  0.44633  0.49777  1.0000
  C   C135      1.0  0.61590  0.44528  0.41431  1.0000
  C   C136      1.0  0.63483  0.42042  0.41919  1.0000
  C   C137      1.0  0.62499  0.39545  0.50849  1.0000
  C   C138      1.0  0.59521  0.39629  0.59281  1.0000
  C   C139      1.0  0.57638  0.42130  0.58785  1.0000
  H   H73       1.0  0.52861  0.42700  0.41862  1.0000
  H   H74       1.0  0.62351  0.46388  0.33930  1.0000
  H   H75       1.0  0.65744  0.41937  0.35118  1.0000
  H   H76       1.0  0.58697  0.37752  0.66471  1.0000
  H   H77       1.0  0.55405  0.42199  0.65839  1.0000
  C   C140      1.0  0.96448  0.97416  0.56999  1.0000
  C   C141      1.0  0.01449  0.94766  0.60007  1.0000
  C   C142      1.0  0.06654  0.97346  0.55262  1.0000
  C   C143      1.0  0.08594  0.94657  0.54761  1.0000
  C   C144      1.0  0.07679  0.92099  0.46401  1.0000
  C   C145      1.0  0.09594  0.89614  0.46117  1.0000
  C   C146      1.0  0.12544  0.89600  0.54107  1.0000
  C   C147      1.0  0.13472  0.92154  0.62397  1.0000
  C   C148      1.0  0.11552  0.94624  0.62634  1.0000
  H   H78       1.0  0.02685  0.92736  0.62622  1.0000
  H   H79       1.0  0.05471  0.92107  0.39638  1.0000
  H   H80       1.0  0.08807  0.87685  0.39503  1.0000
  H   H81       1.0  0.15706  0.92108  0.68924  1.0000
  H   H82       1.0  0.12274  0.96532  0.69616  1.0000
  C   C149      1.0  0.75539  0.23894  0.52905  1.0000
  C   C150      1.0  0.73484  0.25771  0.54720  1.0000
  C   C151      1.0  0.84926  0.14983  0.45379  1.0000
  N   N11       1.0  0.84958  0.12851  0.55901  1.0000
  N   N12       1.0  0.64627  0.37189  0.50226  1.0000
  C   C152      1.0  0.64342  0.34932  0.59828  1.0000
  H   H83       1.0  0.12986  0.84990  0.34225  1.0000
  H   H84       1.0  0.36764  0.65247  0.66846  1.0000
  C   C153      1.0  0.53333  0.47328  0.47158  1.0000
  C   C154      1.0  0.48315  0.44728  0.44084  1.0000
  C   C155      1.0  0.43142  0.47364  0.48428  1.0000
  C   C156      1.0  0.41182  0.44683  0.48963  1.0000
  C   C157      1.0  0.38266  0.44634  0.40697  1.0000
  C   C158      1.0  0.36326  0.42173  0.41067  1.0000
  C   C159      1.0  0.37210  0.39636  0.49710  1.0000
  C   C160      1.0  0.40127  0.39663  0.57996  1.0000
  C   C161      1.0  0.42047  0.42144  0.57728  1.0000
  H   H85       1.0  0.47052  0.42711  0.41552  1.0000
  H   H86       1.0  0.37591  0.46523  0.33376  1.0000
  H   H87       1.0  0.34104  0.42118  0.34436  1.0000
  H   H88       1.0  0.40868  0.37760  0.65017  1.0000
  H   H89       1.0  0.44206  0.42161  0.64895  1.0000
  C   C162      1.0  0.03274  0.97358  0.57026  1.0000
  C   C163      1.0  0.98194  0.94792  0.59911  1.0000
  C   C164      1.0  0.93080  0.97458  0.55394  1.0000
  H   H90       1.0  0.96888  0.92777  0.62258  1.0000
  C   C165      1.0  0.24252  0.23860  0.51221  1.0000
  C   C166      1.0  0.26261  0.25772  0.52833  1.0000
  C   C167      1.0  0.14897  0.14927  0.45091  1.0000
  N   N13       1.0  0.14987  0.12665  0.54710  1.0000
  N   N14       1.0  0.35071  0.37293  0.48999  1.0000
  C   C168      1.0  0.35250  0.35032  0.58586  1.0000
  H   H91       1.0  0.86820  0.85185  0.34342  1.0000
  H   H92       1.0  0.63148  0.65103  0.67059  1.0000
  C   C169      1.0  0.46531  0.52787  0.46761  1.0000
  C   C170      1.0  0.51602  0.55382  0.44052  1.0000
  C   C171      1.0  0.56730  0.52723  0.48539  1.0000
  H   H93       1.0  0.52912  0.57392  0.41642  1.0000
  C   C172      1.0  0.96505  0.02858  0.56841  1.0000
  C   C173      1.0  0.01567  0.05429  0.59461  1.0000
  C   C174      1.0  0.06716  0.02742  0.55109  1.0000
  C   C175      1.0  0.08722  0.05393  0.54578  1.0000
  C   C176      1.0  0.07914  0.07944  0.45785  1.0000
  C   C177      1.0  0.09888  0.10390  0.45500  1.0000
  C   C178      1.0  0.12794  0.10368  0.53902  1.0000
  C   C179      1.0  0.13617  0.07819  0.62587  1.0000
  C   C180      1.0  0.11637  0.05388  0.62851  1.0000
  H   H94       1.0  0.02862  0.07441  0.61699  1.0000
  H   H95       1.0  0.05761  0.07954  0.38570  1.0000
  H   H96       1.0  0.09195  0.12299  0.38388  1.0000
  H   H97       1.0  0.15825  0.07836  0.69350  1.0000
  H   H98       1.0  0.12285  0.03481  0.70083  1.0000
  C   C181      1.0  0.76200  0.75872  0.49828  1.0000
  C   C182      1.0  0.74201  0.73931  0.51172  1.0000
  C   C183      1.0  0.85092  0.85271  0.44742  1.0000
  N   N15       1.0  0.84949  0.87415  0.55147  1.0000
  N   N16       1.0  0.65100  0.62583  0.47537  1.0000
  C   C184      1.0  0.64976  0.64826  0.57251  1.0000
  H   H99       1.0  0.13113  0.15226  0.35501  1.0000
  H   H100      1.0  0.37061  0.34780  0.68082  1.0000
  C   C185      1.0  0.41581  0.50066  0.49344  1.0000
  C   C186      1.0  0.51641  0.50053  0.47224  1.0000
  H   H101      1.0  0.39010  0.50064  0.51328  1.0000
  C   C187      1.0  0.58265  0.50018  0.49898  1.0000
  C   C188      1.0  0.48227  0.50062  0.47108  1.0000
  H   H102      1.0  0.60814  0.50007  0.52029  1.0000
  C   C189      1.0  0.91554  0.00170  0.54314  1.0000
  C   C190      1.0  0.01599  0.00093  0.56715  1.0000
  H   H103      1.0  0.89004  0.00190  0.52250  1.0000
  C   C191      1.0  0.08245  0.00029  0.54007  1.0000
  C   C192      1.0  0.98181  0.00123  0.56731  1.0000
  H   H104      1.0  0.10807  0.00001  0.51743  1.0000
  C  Sn1       1.0  0.82314  0.77955  0.41474  1.0000
  C   C193      1.0  0.79449  0.77857  0.50585  1.0000
  C  Sn2       1.0  0.78068  0.80429  0.56665  1.0000
  C  Sn3       1.0  0.79581  0.83156  0.53566  1.0000
  C   C194      1.0  0.82444  0.83254  0.44458  1.0000
  C  Sn4       1.0  0.83827  0.80683  0.38375  1.0000
  O  Te1       1.0  0.83652  0.75357  0.35515  1.0000
  O  Te2       1.0  0.75203  0.80276  0.65746  1.0000
  O  Te3       1.0  0.78240  0.85756  0.59535  1.0000
  O  Te4       1.0  0.86690  0.80835  0.29297  1.0000
  Mg  Mg1       1.0  0.74314  0.84417  0.71249  1.0000
  Mg  Mg2       1.0  0.87580  0.76695  0.23781  1.0000
  C  Sn5       1.0  0.12784  0.94525  0.10135  1.0000
  C   C195      1.0  0.09798  0.94873  0.03104  1.0000
  C  Sn6       1.0  0.07708  0.92408  0.97226  1.0000
  C  Sn7       1.0  0.09069  0.89578  0.98409  1.0000
  C   C196      1.0  0.12493  0.89273  0.05439  1.0000
  C  Sn8       1.0  0.14145  0.91695  0.11319  1.0000
  O  Te5       1.0  0.14391  0.96979  0.15932  1.0000
  O  Te6       1.0  0.04726  0.92810  0.90240  1.0000
  O  Te7       1.0  0.07459  0.87124  0.92604  1.0000
  O  Te8       1.0  0.17124  0.91294  0.18302  1.0000
  Mg  Mg3       1.0  0.03464  0.88791  0.84107  1.0000
  Mg  Mg4       1.0  0.18388  0.95312  0.24447  1.0000
  C  Sn9       1.0  0.79372  0.17184  0.01647  1.0000
  C   C197      1.0  0.81908  0.17117  0.93563  1.0000
  C  Sn10      1.0  0.83339  0.19732  0.88398  1.0000
  C  Sn11      1.0  0.81763  0.22430  0.91385  1.0000
  C   C198      1.0  0.78789  0.22455  0.99467  1.0000
  C  Sn12      1.0  0.77796  0.19882  0.04634  1.0000
  O  Te9       1.0  0.77986  0.14543  0.06702  1.0000
  O  Te10      1.0  0.86315  0.19651  0.80335  1.0000
  O  Te11      1.0  0.83152  0.25072  0.86322  1.0000
  O  Te12      1.0  0.74822  0.19962  0.12695  1.0000
  Mg  Mg5       1.0  0.87232  0.23829  0.75821  1.0000
  Mg  Mg6       1.0  0.73903  0.15786  0.17222  1.0000
  C  Sn13      1.0  0.71646  0.68657  0.40428  1.0000
  C   C199      1.0  0.71588  0.71414  0.47835  1.0000
  C  Sn14      1.0  0.69463  0.72000  0.60927  1.0000
  C  Sn15      1.0  0.67354  0.69783  0.66745  1.0000
  C   C200      1.0  0.67414  0.67027  0.59342  1.0000
  C  Sn16      1.0  0.69537  0.66439  0.46246  1.0000
  O  Te13      1.0  0.73790  0.68120  0.27356  1.0000
  O  Te14      1.0  0.69448  0.74774  0.68130  1.0000
  O  Te15      1.0  0.65210  0.70322  0.79827  1.0000
  O  Te16      1.0  0.69553  0.63667  0.39046  1.0000
  Mg  Mg7       1.0  0.66092  0.74444  0.85600  1.0000
  Mg  Mg8       1.0  0.72909  0.63995  0.21582  1.0000
  C  Sn17      1.0  0.29093  0.32971  0.51234  1.0000
  C   C201      1.0  0.31990  0.32939  0.59392  1.0000
  C  Sn18      1.0  0.33354  0.30291  0.64167  1.0000
  C  Sn19      1.0  0.31790  0.27618  0.60706  1.0000
  C   C202      1.0  0.28895  0.27651  0.52550  1.0000
  C  Sn20      1.0  0.27529  0.30298  0.47773  1.0000
  O  Te17      1.0  0.27773  0.35644  0.46574  1.0000
  O  Te18      1.0  0.36251  0.30315  0.72313  1.0000
  O  Te19      1.0  0.33112  0.24944  0.65374  1.0000
  O  Te20      1.0  0.24634  0.30276  0.39629  1.0000
  Mg  Mg9       1.0  0.37098  0.26111  0.76172  1.0000
  Mg  Mg10      1.0  0.23786  0.34478  0.35757  1.0000
  C  Sn21      1.0  0.59806  0.59636  0.61959  1.0000
  C   C203      1.0  0.62690  0.60025  0.53274  1.0000
  C  Sn22      1.0  0.63566  0.58126  0.40481  1.0000
  C  Sn23      1.0  0.61517  0.55790  0.36273  1.0000
  C   C204      1.0  0.58634  0.55402  0.44953  1.0000
  C  Sn24      1.0  0.57756  0.57300  0.57750  1.0000
  O  Te21      1.0  0.58978  0.61561  0.74703  1.0000
  O  Te22      1.0  0.66462  0.58559  0.31981  1.0000
  O  Te23      1.0  0.62347  0.53864  0.23517  1.0000
  O  Te24      1.0  0.54862  0.56869  0.66246  1.0000
  Mg  Mg11      1.0  0.66536  0.55356  0.15573  1.0000
  Mg  Mg12      1.0  0.54785  0.60070  0.82650  1.0000
  C  Sn25      1.0  0.85981  0.93255  0.59707  1.0000
  C   C205      1.0  0.86555  0.90586  0.51816  1.0000
  C  Sn26      1.0  0.89624  0.89858  0.46216  1.0000
  C  Sn27      1.0  0.92175  0.91838  0.48561  1.0000
  C   C206      1.0  0.91601  0.94506  0.56450  1.0000
  C  Sn28      1.0  0.88532  0.95236  0.62052  1.0000
  O  Te25      1.0  0.82894  0.93938  0.65206  1.0000
  O  Te26      1.0  0.90138  0.87176  0.38357  1.0000
  O  Te27      1.0  0.95264  0.91154  0.43053  1.0000
  O  Te28      1.0  0.88017  0.97915  0.69909  1.0000
  Mg  Mg13      1.0  0.94766  0.87238  0.33060  1.0000
  Mg  Mg14      1.0  0.83391  0.97855  0.75218  1.0000
  C  Sn29      1.0  0.68522  0.71762  0.18692  1.0000
  C   C207      1.0  0.71366  0.71753  0.09390  1.0000
  C  Sn30      1.0  0.71482  0.69571  0.97394  1.0000
  C  Sn31      1.0  0.69146  0.67395  0.94631  1.0000
  C   C208      1.0  0.66743  0.67447  0.03927  1.0000
  C  Sn32      1.0  0.66185  0.69587  0.15928  1.0000
  O  Te29      1.0  0.68017  0.73923  0.30618  1.0000
  O  Te30      1.0  0.74345  0.69606  0.88254  1.0000
  O  Te31      1.0  0.69653  0.65234  0.82693  1.0000
  O  Te32      1.0  0.63325  0.69553  0.25063  1.0000
  Mg  Mg15      1.0  0.73927  0.66202  0.73399  1.0000
  Mg  Mg16      1.0  0.63739  0.72956  0.39914  1.0000
  C  Sn33      1.0  0.18057  0.22126  0.43909  1.0000
  C   C209      1.0  0.20959  0.21962  0.51974  1.0000
  C  Sn34      1.0  0.22230  0.19249  0.56285  1.0000
  C  Sn35      1.0  0.20566  0.16646  0.52445  1.0000
  C   C210      1.0  0.17667  0.16811  0.44383  1.0000
  C  Sn36      1.0  0.16393  0.19523  0.40070  1.0000
  O  Te33      1.0  0.16831  0.24862  0.39716  1.0000
  O  Te34      1.0  0.25134  0.19140  0.64347  1.0000
  O  Te35      1.0  0.21795  0.13909  0.56647  1.0000
  O  Te36      1.0  0.13491  0.19632  0.32010  1.0000
  Mg  Mg17      1.0  0.25831  0.14894  0.67510  1.0000
  Mg  Mg18      1.0  0.12793  0.23877  0.28834  1.0000
  C  Sn37      1.0  0.71866  0.31655  0.51994  1.0000
  C   C211      1.0  0.71686  0.28848  0.58825  1.0000
  C  Sn38      1.0  0.68778  0.27752  0.64864  1.0000
  C  Sn39      1.0  0.65992  0.29497  0.64050  1.0000
  C   C212      1.0  0.66174  0.32301  0.57219  1.0000
  C  Sn40      1.0  0.69080  0.33399  0.51179  1.0000
  O  Te37      1.0  0.74798  0.32705  0.46030  1.0000
  O  Te38      1.0  0.68657  0.24940  0.71644  1.0000
  O  Te39      1.0  0.63059  0.28444  0.70021  1.0000
  O  Te40      1.0  0.69202  0.36209  0.44401  1.0000
  Mg  Mg19      1.0  0.64108  0.24479  0.78125  1.0000
  Mg  Mg20      1.0  0.73749  0.36672  0.37908  1.0000
  C  Sn41      1.0  0.83020  0.20885  0.42665  1.0000
  C   C213      1.0  0.82978  0.18057  0.49240  1.0000
  C  Sn42      1.0  0.80166  0.16889  0.56042  1.0000
  C  Sn43      1.0  0.77335  0.18584  0.56269  1.0000
  C   C214      1.0  0.77378  0.21410  0.49694  1.0000
  C  Sn44      1.0  0.80190  0.22580  0.42891  1.0000
  O  Te41      1.0  0.85859  0.22008  0.35926  1.0000
  O  Te42      1.0  0.80183  0.14056  0.62547  1.0000
  O  Te43      1.0  0.74495  0.17458  0.63015  1.0000
  O  Te44      1.0  0.80173  0.25411  0.36386  1.0000
  Mg  Mg21      1.0  0.75722  0.13491  0.70361  1.0000
  Mg  Mg22      1.0  0.84632  0.25977  0.28562  1.0000
  C  Sn45      1.0  0.08641  0.08263  0.91243  1.0000
  C   C215      1.0  0.09163  0.05600  0.99235  1.0000
  C  Sn46      1.0  0.11863  0.05433  0.11571  1.0000
  C  Sn47      1.0  0.13637  0.07940  0.16020  1.0000
  C   C216      1.0  0.13114  0.10602  0.08033  1.0000
  C  Sn48      1.0  0.10415  0.10770  0.95693  1.0000
  O  Te45      1.0  0.06370  0.08421  0.78947  1.0000
  O  Te46      1.0  0.12343  0.02746  0.19381  1.0000
  O  Te47      1.0  0.15909  0.07781  0.28327  1.0000
  O  Te48      1.0  0.09933  0.13455  0.87887  1.0000
  Mg  Mg23      1.0  0.15702  0.03635  0.35379  1.0000
  Mg  Mg24      1.0  0.06574  0.12569  0.71895  1.0000
  C  Sn49      1.0  0.91209  0.89781  0.98089  1.0000
  C   C217      1.0  0.88680  0.89408  0.05895  1.0000
  C  Sn50      1.0  0.86970  0.91793  0.12191  1.0000
  C  Sn51      1.0  0.88253  0.94654  0.10643  1.0000
  C   C218      1.0  0.91220  0.95068  0.02838  1.0000
  C  Sn52      1.0  0.92492  0.92642  0.96540  1.0000
  O  Te49      1.0  0.92876  0.87364  0.91886  1.0000
  O  Te50      1.0  0.84007  0.91324  0.19951  1.0000
  O  Te51      1.0  0.86582  0.97071  0.16854  1.0000
  O  Te52      1.0  0.95453  0.93110  0.88783  1.0000
  Mg  Mg25      1.0  0.82642  0.95314  0.26394  1.0000
  Mg  Mg26      1.0  0.96819  0.89122  0.82328  1.0000
  C  Sn53      1.0  0.22311  0.18151  0.03127  1.0000
  C   C219      1.0  0.21789  0.20931  0.96473  1.0000
  C  Sn54      1.0  0.18949  0.22075  0.90537  1.0000
  C  Sn55      1.0  0.16131  0.20364  0.91276  1.0000
  C   C220      1.0  0.16212  0.17545  0.97929  1.0000
  C  Sn56      1.0  0.19492  0.16440  0.03866  1.0000
  O  Te53      1.0  0.25176  0.17052  0.08990  1.0000
  O  Te54      1.0  0.18928  0.24901  0.83934  1.0000
  O  Te55      1.0  0.13264  0.21465  0.85405  1.0000
  O  Te56      1.0  0.19514  0.13616  0.10469  1.0000
  Mg  Mg27      1.0  0.14441  0.25431  0.77536  1.0000
  Mg  Mg28      1.0  0.23999  0.13084  0.16878  1.0000
  C  Sn57      1.0  0.36074  0.56909  0.43429  1.0000
  C   C221      1.0  0.36536  0.59604  0.51128  1.0000
  C  Sn58      1.0  0.39541  0.60381  0.56744  1.0000
  C  Sn59      1.0  0.42139  0.58425  0.54610  1.0000
  C   C222      1.0  0.41677  0.55733  0.46913  1.0000
  C  Sn60      1.0  0.38673  0.54953  0.41296  1.0000
  O  Te57      1.0  0.33049  0.56178  0.37911  1.0000
  O  Te58      1.0  0.39944  0.63086  0.64409  1.0000
  O  Te59      1.0  0.45166  0.59159  0.60137  1.0000
  O  Te60      1.0  0.38269  0.52250  0.33632  1.0000
  Mg  Mg29      1.0  0.44519  0.63091  0.69818  1.0000
  Mg  Mg30      1.0  0.33695  0.52244  0.28211  1.0000
  C  Sn61      1.0  0.92534  0.08840  0.99323  1.0000
  C   C223      1.0  0.92318  0.06216  0.07173  1.0000
  C  Sn62      1.0  0.89236  0.05577  0.12971  1.0000
  C  Sn63      1.0  0.86758  0.07644  0.10870  1.0000
  C   C224      1.0  0.87415  0.10307  0.03022  1.0000
  C  Sn64      1.0  0.90056  0.10907  0.97222  1.0000
  O  Te61      1.0  0.95633  0.09432  0.93624  1.0000
  O  Te62      1.0  0.88638  0.02899  0.20784  1.0000
  O  Te63      1.0  0.83657  0.07050  0.16577  1.0000
  O  Te64      1.0  0.90654  0.13583  0.89410  1.0000
  Mg  Mg31      1.0  0.84029  0.03101  0.26414  1.0000
  Mg  Mg32      1.0  0.95262  0.13383  0.83768  1.0000
