data_image0
_chemical_formula_structural       C3HCNHC3HCNHC3HCNHC3HCNHC3HCNHC3HCNHC3HCNHC3HCNHC2HC2HC2HC2HC3HCNHC3HCNHC3HCNHC3HCNHC3HCNHC3HCNHC3HCNHC3HCNHC2HC2HC2HC2HC2Sn2C2HTe2HMgC2Sn2C2HTe2HMgC2Sn2C2HTe2HMgC2Sn2C2HTe2HMgC2Sn2C2HTe2HMgC2Sn2C2HTe2HMgC2Sn2C2HTe2HMgC2Sn2C2HTe2HMgC2Sn2C2HTe2HMgC2Sn2C2HTe2HMgC2Sn2C2HTe2HMgC2Sn2C2HTe2HMgC2Sn2C2HTe2HMgC2Sn2C2HTe2HMgC2Sn2C2HTe2HMgC2Sn2C2HTe2HMgC2Sn2C2HTe2HMgC2Sn2C2HTe2HMgC2Sn2C2HTe2HMgC2Sn2C2HTe2HMgC2Sn2C2HTe2HMgC2Sn2C2HTe2HMgC2Sn2C2HTe2HMgC2Sn2C2HTe2HMg
_chemical_formula_sum              "C176 H88 N16 Sn48 Te48 Mg24"
_cell_length_a       31.8451
_cell_length_b       36.193
_cell_length_c       8.12167
_cell_angle_alpha    90.5219
_cell_angle_beta     90.1528
_cell_angle_gamma    89.9837

_symmetry_space_group_name_H-M    'P1'
_space_group_IT_number       1

loop_
  _space_group_symop_operation_xyz
  'x, y, z'

loop_
  _atom_site_type_symbol
  _atom_site_label
  _atom_site_symmetry_multiplicity
  _atom_site_fract_x
  _atom_site_fract_y
  _atom_site_fract_z
  _atom_site_occupancy
  C   C1        1.0  0.54737  0.53502  0.89354  1.0000
  C   C2        1.0  0.48122  0.56850  0.86471  1.0000
  C   C3        1.0  0.41267  0.53562  0.90204  1.0000
  H   H1        1.0  0.46473  0.59425  0.84259  1.0000
  C   C4        1.0  0.19283  0.81162  0.00461  1.0000
  N   N1        1.0  0.19502  0.83935  0.10594  1.0000
  H   H2        1.0  0.84032  0.19821  0.96272  1.0000
  C   C5        1.0  0.95540  0.03552  0.11830  1.0000
  C   C6        1.0  0.02148  0.06917  0.14464  1.0000
  C   C7        1.0  0.09005  0.03640  0.10237  1.0000
  H   H3        1.0  0.03800  0.09497  0.16670  1.0000
  C   C8        1.0  0.30841  0.31376  0.02512  1.0000
  N   N2        1.0  0.30503  0.34076  0.92231  1.0000
  H   H4        1.0  0.67180  0.69250  0.11628  1.0000
  C   C9        1.0  0.45683  0.46685  0.88330  1.0000
  C   C10       1.0  0.52309  0.43328  0.86520  1.0000
  C   C11       1.0  0.59106  0.46626  0.91161  1.0000
  H   H5        1.0  0.53987  0.40744  0.84716  1.0000
  C   C12       1.0  0.80980  0.19141  0.01791  1.0000
  N   N3        1.0  0.80164  0.15977  0.08347  1.0000
  H   H6        1.0  0.17014  0.81015  0.90240  1.0000
  C   C13       1.0  0.04605  0.96750  0.11654  1.0000
  C   C14       1.0  0.97986  0.93399  0.14178  1.0000
  C   C15       1.0  0.91157  0.96685  0.10006  1.0000
  H   H7        1.0  0.96321  0.90829  0.16334  1.0000
  C   C16       1.0  0.69767  0.68835  0.02860  1.0000
  N   N4        1.0  0.70164  0.65916  0.93674  1.0000
  H   H8        1.0  0.33290  0.31250  0.12050  1.0000
  C   C17       1.0  0.54666  0.46630  0.89294  1.0000
  C   C18       1.0  0.48022  0.43358  0.85919  1.0000
  C   C19       1.0  0.41229  0.46735  0.89667  1.0000
  H   H9        1.0  0.46334  0.40806  0.83439  1.0000
  C   C20       1.0  0.19445  0.19097  0.99539  1.0000
  N   N5        1.0  0.19626  0.16415  0.09948  1.0000
  H   H10       1.0  0.84160  0.80439  0.91312  1.0000
  C   C21       1.0  0.95609  0.96691  0.11600  1.0000
  C   C22       1.0  0.02278  0.93430  0.14202  1.0000
  C   C23       1.0  0.09055  0.96806  0.10083  1.0000
  H   H11       1.0  0.03984  0.90884  0.16417  1.0000
  C   C24       1.0  0.30675  0.68887  0.03882  1.0000
  N   N6        1.0  0.30457  0.66190  0.93337  1.0000
  H   H12       1.0  0.65928  0.30274  0.08223  1.0000
  C   C25       1.0  0.45724  0.53562  0.88766  1.0000
  C   C26       1.0  0.52416  0.56825  0.86814  1.0000
  C   C27       1.0  0.59188  0.53438  0.91063  1.0000
  H   H13       1.0  0.54126  0.59382  0.84952  1.0000
  C   C28       1.0  0.81392  0.80868  0.99148  1.0000
  N   N7        1.0  0.80731  0.83864  0.07584  1.0000
  H   H14       1.0  0.17174  0.19172  0.89320  1.0000
  C   C29       1.0  0.04548  0.03632  0.11763  1.0000
  C   C30       1.0  0.97854  0.06884  0.14496  1.0000
  C   C31       1.0  0.91087  0.03486  0.10371  1.0000
  H   H15       1.0  0.96139  0.09431  0.16794  1.0000
  C   C32       1.0  0.68932  0.30874  0.02157  1.0000
  N   N8        1.0  0.69733  0.33970  0.94973  1.0000
  H   H16       1.0  0.33036  0.69012  0.13776  1.0000
  C   C33       1.0  0.39195  0.50153  0.90862  1.0000
  C   C34       1.0  0.52454  0.50083  0.89213  1.0000
  H   H17       1.0  0.35824  0.50158  0.92943  1.0000
  C   C35       1.0  0.61204  0.50014  0.92100  1.0000
  C   C36       1.0  0.47948  0.50111  0.88831  1.0000
  H   H18       1.0  0.64576  0.49985  0.94230  1.0000
  C   C37       1.0  0.11078  0.00231  0.09189  1.0000
  C   C38       1.0  0.97829  0.00140  0.11570  1.0000
  H   H19       1.0  0.14450  0.00238  0.07148  1.0000
  C   C39       1.0  0.89051  0.00070  0.09226  1.0000
  C   C40       1.0  0.02336  0.00175  0.11569  1.0000
  H   H20       1.0  0.85673  0.00045  0.07157  1.0000
  C   C41       1.0  0.54354  0.53353  0.39860  1.0000
  C   C42       1.0  0.47727  0.56612  0.36036  1.0000
  C   C43       1.0  0.40926  0.53238  0.39210  1.0000
  H   H21       1.0  0.46038  0.59159  0.33629  1.0000
  C   C44       1.0  0.18928  0.80716  0.50248  1.0000
  N   N9        1.0  0.19438  0.83673  0.59124  1.0000
  H   H22       1.0  0.82901  0.18984  0.39558  1.0000
  C   C45       1.0  0.95503  0.03360  0.61493  1.0000
  C   C46       1.0  0.02145  0.06618  0.65196  1.0000
  C   C47       1.0  0.08934  0.03278  0.60738  1.0000
  H   H23       1.0  0.03839  0.09152  0.68004  1.0000
  C   C48       1.0  0.30425  0.31156  0.52233  1.0000
  N   N10       1.0  0.30189  0.33794  0.41620  1.0000
  H   H24       1.0  0.66679  0.69045  0.65275  1.0000
  C   C49       1.0  0.45432  0.46414  0.38017  1.0000
  C   C50       1.0  0.52137  0.43159  0.36446  1.0000
  C   C51       1.0  0.58852  0.46547  0.42120  1.0000
  H   H25       1.0  0.53869  0.40608  0.34513  1.0000
  C   C52       1.0  0.80644  0.18870  0.49781  1.0000
  N   N11       1.0  0.80470  0.16137  0.59921  1.0000
  H   H26       1.0  0.16292  0.80326  0.41634  1.0000
  C   C53       1.0  0.04462  0.96444  0.61600  1.0000
  C   C54       1.0  0.97784  0.93172  0.63712  1.0000
  C   C55       1.0  0.91017  0.96546  0.59039  1.0000
  H   H27       1.0  0.96084  0.90618  0.65763  1.0000
  C   C56       1.0  0.68999  0.68910  0.55286  1.0000
  N   N12       1.0  0.69228  0.66182  0.44910  1.0000
  H   H28       1.0  0.32787  0.31098  0.62128  1.0000
  C   C57       1.0  0.54427  0.46483  0.39617  1.0000
  C   C58       1.0  0.47847  0.43125  0.35690  1.0000
  C   C59       1.0  0.40970  0.46416  0.39106  1.0000
  H   H29       1.0  0.46221  0.40545  0.33127  1.0000
  C   C60       1.0  0.19057  0.18858  0.49898  1.0000
  N   N13       1.0  0.19441  0.16079  0.59718  1.0000
  H   H30       1.0  0.82231  0.81190  0.38609  1.0000
  C   C61       1.0  0.95459  0.96488  0.60994  1.0000
  C   C62       1.0  0.02077  0.93152  0.64017  1.0000
  C   C63       1.0  0.08917  0.96462  0.60136  1.0000
  H   H31       1.0  0.03736  0.90587  0.66332  1.0000
  C   C64       1.0  0.30649  0.68720  0.52854  1.0000
  N   N14       1.0  0.30217  0.65885  0.43159  1.0000
  H   H32       1.0  0.67146  0.31169  0.64689  1.0000
  C   C65       1.0  0.45382  0.53288  0.38153  1.0000
  C   C66       1.0  0.52013  0.56644  0.36842  1.0000
  C   C67       1.0  0.58771  0.53363  0.42450  1.0000
  H   H33       1.0  0.53704  0.59215  0.35067  1.0000
  C   C68       1.0  0.80225  0.81231  0.49635  1.0000
  N   N15       1.0  0.80281  0.83902  0.60311  1.0000
  H   H34       1.0  0.16559  0.19062  0.40584  1.0000
  C   C69       1.0  0.04485  0.03313  0.62225  1.0000
  C   C70       1.0  0.97856  0.06641  0.64821  1.0000
  C   C71       1.0  0.91066  0.03368  0.59359  1.0000
  H   H35       1.0  0.96171  0.09197  0.67246  1.0000
  C   C72       1.0  0.69324  0.31179  0.54199  1.0000
  N   N16       1.0  0.69448  0.33814  0.43565  1.0000
  H   H36       1.0  0.33252  0.69045  0.61669  1.0000
  C   C73       1.0  0.38886  0.49822  0.39885  1.0000
  C   C74       1.0  0.52146  0.49899  0.39394  1.0000
  H   H37       1.0  0.35504  0.49818  0.41663  1.0000
  C   C75       1.0  0.60852  0.49972  0.43792  1.0000
  C   C76       1.0  0.47648  0.49865  0.38534  1.0000
  H   H38       1.0  0.64192  0.50006  0.46616  1.0000
  C   C77       1.0  0.10985  0.99871  0.59499  1.0000
  C   C78       1.0  0.97727  0.99911  0.61239  1.0000
  H   H39       1.0  0.14359  0.99875  0.57489  1.0000
  C   C79       1.0  0.89000  0.99969  0.57831  1.0000
  C   C80       1.0  0.02230  0.99888  0.61592  1.0000
  H   H40       1.0  0.85644  0.99987  0.55338  1.0000
  C   C81       1.0  0.32328  0.59149  0.82594  1.0000
  C   C82       1.0  0.32814  0.62359  0.92099  1.0000
  C  Sn1       1.0  0.36427  0.62742  0.01145  1.0000
  C  Sn2       1.0  0.39677  0.60062  0.00638  1.0000
  C   C83       1.0  0.39230  0.57065  0.91083  1.0000
  C   C84       1.0  0.35533  0.56504  0.82082  1.0000
  H   H41       1.0  0.29469  0.58716  0.75623  1.0000
  O  Te1       1.0  0.36860  0.65964  0.10582  1.0000
  O  Te2       1.0  0.43390  0.60580  0.09555  1.0000
  H   H42       1.0  0.35159  0.54019  0.74716  1.0000
  Mg  Mg1       1.0  0.42502  0.65416  0.20596  1.0000
  C   C85       1.0  0.22947  0.72096  0.92538  1.0000
  C   C86       1.0  0.26806  0.71680  0.00196  1.0000
  C  Sn3       1.0  0.28308  0.74646  0.09631  1.0000
  C  Sn4       1.0  0.25826  0.77880  0.11415  1.0000
  C   C87       1.0  0.21901  0.78064  0.03714  1.0000
  C   C88       1.0  0.20496  0.75285  0.94296  1.0000
  H   H43       1.0  0.21807  0.69787  0.85258  1.0000
  O  Te3       1.0  0.32239  0.74389  0.17194  1.0000
  O  Te4       1.0  0.27251  0.80885  0.20780  1.0000
  H   H44       1.0  0.17455  0.75448  0.88377  1.0000
  Mg  Mg2       1.0  0.32816  0.79213  0.28690  1.0000
  C   C89       1.0  0.17846  0.09288  0.19326  1.0000
  C   C90       1.0  0.17324  0.12554  0.10499  1.0000
  C  Sn5       1.0  0.13670  0.13138  0.01328  1.0000
  C  Sn6       1.0  0.10484  0.10399  0.01014  1.0000
  C   C91       1.0  0.11035  0.07143  0.09896  1.0000
  C   C92       1.0  0.14705  0.06585  0.19028  1.0000
  H   H45       1.0  0.20684  0.08858  0.26400  1.0000
  O  Te5       1.0  0.13268  0.16620  0.92576  1.0000
  O  Te6       1.0  0.06868  0.11117  0.91954  1.0000
  H   H46       1.0  0.15107  0.04058  0.25870  1.0000
  Mg  Mg3       1.0  0.07686  0.16042  0.82048  1.0000
  C   C93       1.0  0.60539  0.39174  0.02987  1.0000
  C   C94       1.0  0.61428  0.42743  0.95328  1.0000
  C  Sn7       1.0  0.65093  0.43204  0.86151  1.0000
  C  Sn8       1.0  0.67982  0.40236  0.84633  1.0000
  C   C95       1.0  0.67130  0.36880  0.92333  1.0000
  C   C96       1.0  0.63387  0.36245  0.01491  1.0000
  H   H47       1.0  0.57694  0.38840  0.10066  1.0000
  O  Te7       1.0  0.65865  0.46584  0.78583  1.0000
  O  Te8       1.0  0.71668  0.40621  0.75529  1.0000
  H   H48       1.0  0.62751  0.33639  0.07412  1.0000
  Mg  Mg4       1.0  0.71323  0.45762  0.67500  1.0000
  C   C97       1.0  0.78704  0.26566  0.94576  1.0000
  C   C98       1.0  0.78262  0.22799  0.00901  1.0000
  C  Sn9       1.0  0.74453  0.21614  0.07516  1.0000
  C  Sn10      1.0  0.70958  0.24047  0.07783  1.0000
  C   C99       1.0  0.71364  0.27604  0.01414  1.0000
  C   C100      1.0  0.75258  0.28966  0.94828  1.0000
  H   H49       1.0  0.81664  0.27461  0.89472  1.0000
  O  Te9       1.0  0.74134  0.18046  0.13789  1.0000
  O  Te10      1.0  0.67114  0.22933  0.14316  1.0000
  H   H50       1.0  0.75546  0.31724  0.89922  1.0000
  Mg  Mg5       1.0  0.68237  0.17806  0.21400  1.0000
  C   C101      1.0  0.89748  0.89167  0.98473  1.0000
  C   C102      1.0  0.88820  0.92372  0.05948  1.0000
  C  Sn11      1.0  0.85187  0.92847  0.15336  1.0000
  C  Sn12      1.0  0.82368  0.89847  0.17255  1.0000
  C   C103      1.0  0.83257  0.86447  0.09736  1.0000
  C   C104      1.0  0.86902  0.86003  0.00365  1.0000
  H   H51       1.0  0.92569  0.88823  0.91229  1.0000
  O  Te11      1.0  0.84375  0.96271  0.22715  1.0000
  O  Te12      1.0  0.78714  0.90245  0.26576  1.0000
  H   H52       1.0  0.87636  0.83567  0.94588  1.0000
  Mg  Mg6       1.0  0.78983  0.95450  0.34218  1.0000
  C   C105      1.0  0.39555  0.39095  0.01237  1.0000
  C   C106      1.0  0.39082  0.42520  0.92105  1.0000
  C  Sn13      1.0  0.35428  0.43043  0.82858  1.0000
  C  Sn14      1.0  0.32261  0.40286  0.82779  1.0000
  C   C107      1.0  0.32830  0.37075  0.91966  1.0000
  C   C108      1.0  0.36432  0.36376  0.01172  1.0000
  H   H53       1.0  0.42393  0.38713  0.08368  1.0000
  O  Te13      1.0  0.34939  0.46276  0.73799  1.0000
  O  Te14      1.0  0.28577  0.40738  0.73650  1.0000
  H   H54       1.0  0.36848  0.33883  0.08250  1.0000
  Mg  Mg7       1.0  0.29366  0.45619  0.63291  1.0000
  C   C109      1.0  0.23235  0.28037  0.90684  1.0000
  C   C110      1.0  0.26776  0.28285  0.00316  1.0000
  C  Sn15      1.0  0.28257  0.25380  0.09940  1.0000
  C  Sn16      1.0  0.26078  0.21961  0.09892  1.0000
  C   C111      1.0  0.22472  0.21535  0.00204  1.0000
  C   C112      1.0  0.21085  0.24665  0.90624  1.0000
  H   H55       1.0  0.22110  0.30300  0.83265  1.0000
  O  Te15      1.0  0.31867  0.25879  0.19496  1.0000
  O  Te16      1.0  0.27491  0.19011  0.19390  1.0000
  H   H56       1.0  0.18291  0.24314  0.83160  1.0000
  Mg  Mg8       1.0  0.32558  0.21040  0.30372  1.0000
  C   C113      1.0  0.10748  0.89480  0.98898  1.0000
  C   C114      1.0  0.11208  0.92577  0.07713  1.0000
  C  Sn17      1.0  0.14768  0.93120  0.17533  1.0000
  C  Sn18      1.0  0.17851  0.90299  0.18518  1.0000
  C   C115      1.0  0.17295  0.87007  0.09642  1.0000
  C   C116      1.0  0.13789  0.86697  0.99857  1.0000
  H   H57       1.0  0.07984  0.89082  0.91320  1.0000
  O  Te17      1.0  0.15245  0.96435  0.26264  1.0000
  O  Te18      1.0  0.21439  0.90769  0.28234  1.0000
  H   H58       1.0  0.13383  0.84141  0.93025  1.0000
  Mg  Mg9       1.0  0.20673  0.95772  0.37831  1.0000
  C   C117      1.0  0.68236  0.58863  0.83445  1.0000
  C   C118      1.0  0.67554  0.62281  0.91119  1.0000
  C  Sn19      1.0  0.63847  0.62689  0.00326  1.0000
  C  Sn20      1.0  0.60843  0.59819  0.01862  1.0000
  C   C119      1.0  0.61624  0.56612  0.94147  1.0000
  C   C120      1.0  0.65275  0.56031  0.84959  1.0000
  H   H59       1.0  0.71062  0.58412  0.76343  1.0000
  O  Te19      1.0  0.63214  0.66121  0.07908  1.0000
  O  Te20      1.0  0.57180  0.60355  0.10996  1.0000
  H   H60       1.0  0.65804  0.53383  0.79028  1.0000
  Mg  Mg10      1.0  0.57733  0.65514  0.19033  1.0000
  C   C121      1.0  0.72088  0.76254  0.10434  1.0000
  C   C122      1.0  0.72358  0.72733  0.03310  1.0000
  C  Sn21      1.0  0.76008  0.71891  0.94538  1.0000
  C  Sn22      1.0  0.79379  0.74422  0.92893  1.0000
  C   C123      1.0  0.79013  0.77733  0.00076  1.0000
  C   C124      1.0  0.75412  0.78752  0.08823  1.0000
  H   H61       1.0  0.69304  0.77042  0.17210  1.0000
  O  Te21      1.0  0.76225  0.68363  0.87493  1.0000
  O  Te22      1.0  0.82998  0.73448  0.84196  1.0000
  H   H62       1.0  0.75206  0.81477  0.14346  1.0000
  Mg  Mg11      1.0  0.81810  0.68324  0.76815  1.0000
  C   C125      1.0  0.83701  0.07441  0.20132  1.0000
  C   C126      1.0  0.87397  0.06696  0.11476  1.0000
  C  Sn23      1.0  0.89098  0.09346  0.01020  1.0000
  C  Sn24      1.0  0.87122  0.13008  0.99226  1.0000
  C   C127      1.0  0.83360  0.13523  0.07948  1.0000
  C   C128      1.0  0.81684  0.10851  0.18374  1.0000
  H   H63       1.0  0.82406  0.05374  0.28206  1.0000
  O  Te23      1.0  0.92860  0.08760  0.92459  1.0000
  O  Te24      1.0  0.88755  0.15706  0.88863  1.0000
  H   H64       1.0  0.78824  0.11429  0.25082  1.0000
  Mg  Mg12      1.0  0.93861  0.13328  0.79806  1.0000
  C   C129      1.0  0.39384  0.60678  0.51442  1.0000
  C   C130      1.0  0.38617  0.57317  0.43381  1.0000
  C  Sn25      1.0  0.34997  0.56849  0.33829  1.0000
  C  Sn26      1.0  0.32099  0.59806  0.32340  1.0000
  C   C131      1.0  0.32897  0.63158  0.40444  1.0000
  C   C132      1.0  0.36528  0.63596  0.49974  1.0000
  H   H65       1.0  0.42195  0.61018  0.58809  1.0000
  O  Te25      1.0  0.34278  0.53472  0.25863  1.0000
  O  Te26      1.0  0.28457  0.59413  0.22868  1.0000
  H   H66       1.0  0.37122  0.66200  0.56205  1.0000
  Mg  Mg13      1.0  0.28866  0.54281  0.14369  1.0000
  C   C133      1.0  0.22726  0.71699  0.42573  1.0000
  C   C134      1.0  0.26748  0.71620  0.49491  1.0000
  C  Sn27      1.0  0.28277  0.74677  0.58254  1.0000
  C  Sn28      1.0  0.25726  0.77867  0.60110  1.0000
  C   C135      1.0  0.21706  0.77918  0.53153  1.0000
  C   C136      1.0  0.20207  0.74844  0.44403  1.0000
  H   H67       1.0  0.21565  0.69320  0.35811  1.0000
  O  Te27      1.0  0.32303  0.74553  0.65081  1.0000
  O  Te28      1.0  0.27176  0.80960  0.68814  1.0000
  H   H68       1.0  0.17092  0.74905  0.39058  1.0000
  Mg  Mg14      1.0  0.32880  0.79459  0.75849  1.0000
  C   C137      1.0  0.10367  0.10809  0.50129  1.0000
  C   C138      1.0  0.11223  0.07383  0.57189  1.0000
  C  Sn29      1.0  0.14862  0.06881  0.66551  1.0000
  C  Sn30      1.0  0.17690  0.09870  0.68870  1.0000
  C   C139      1.0  0.16804  0.13288  0.61765  1.0000
  C   C140      1.0  0.13154  0.13759  0.52416  1.0000
  H   H69       1.0  0.07541  0.11175  0.42903  1.0000
  O  Te29      1.0  0.15670  0.03439  0.73512  1.0000
  O  Te30      1.0  0.21350  0.09445  0.78175  1.0000
  H   H70       1.0  0.12490  0.16413  0.46960  1.0000
  Mg  Mg15      1.0  0.21073  0.04224  0.85167  1.0000
  C   C141      1.0  0.60322  0.39002  0.52676  1.0000
  C   C142      1.0  0.61191  0.42467  0.46037  1.0000
  C  Sn31      1.0  0.64896  0.43041  0.37251  1.0000
  C  Sn32      1.0  0.67778  0.40087  0.35086  1.0000
  C   C143      1.0  0.66878  0.36631  0.41766  1.0000
  C   C144      1.0  0.63162  0.36086  0.50541  1.0000
  H   H71       1.0  0.57446  0.38580  0.59458  1.0000
  O  Te31      1.0  0.65716  0.46520  0.30705  1.0000
  O  Te32      1.0  0.71504  0.40585  0.26353  1.0000
  H   H72       1.0  0.62488  0.33403  0.55670  1.0000
  Mg  Mg16      1.0  0.71218  0.45833  0.19772  1.0000
  C   C145      1.0  0.76765  0.27801  0.41136  1.0000
  C   C146      1.0  0.72965  0.28088  0.49623  1.0000
  C  Sn33      1.0  0.71639  0.25231  0.59827  1.0000
  C  Sn34      1.0  0.74172  0.22031  0.61547  1.0000
  C   C147      1.0  0.77969  0.21771  0.53013  1.0000
  C   C148      1.0  0.79265  0.24646  0.42830  1.0000
  H   H73       1.0  0.77769  0.30026  0.33264  1.0000
  O  Te33      1.0  0.67834  0.25563  0.68212  1.0000
  O  Te34      1.0  0.72923  0.19135  0.71670  1.0000
  H   H74       1.0  0.82208  0.24424  0.36269  1.0000
  Mg  Mg17      1.0  0.67480  0.20878  0.80550  1.0000
  C   C149      1.0  0.89390  0.88897  0.49425  1.0000
  C   C150      1.0  0.88613  0.92446  0.55625  1.0000
  C  Sn35      1.0  0.84991  0.93161  0.64785  1.0000
  C  Sn36      1.0  0.82099  0.90264  0.67777  1.0000
  C   C151      1.0  0.82906  0.86722  0.61531  1.0000
  C   C152      1.0  0.86540  0.86038  0.52376  1.0000
  H   H75       1.0  0.92202  0.88367  0.42350  1.0000
  O  Te35      1.0  0.84262  0.96722  0.70884  1.0000
  O  Te36      1.0  0.78454  0.90901  0.76898  1.0000
  H   H76       1.0  0.87142  0.83290  0.47586  1.0000
  Mg  Mg18      1.0  0.78850  0.96220  0.82615  1.0000
  C   C153      1.0  0.33492  0.42448  0.30344  1.0000
  C   C154      1.0  0.37304  0.43158  0.38331  1.0000
  C  Sn37      1.0  0.39171  0.40452  0.48085  1.0000
  C  Sn38      1.0  0.37180  0.36972  0.49849  1.0000
  C   C155      1.0  0.33369  0.36288  0.41798  1.0000
  C   C156      1.0  0.31527  0.39016  0.32071  1.0000
  H   H77       1.0  0.32068  0.44557  0.22811  1.0000
  O  Te37      1.0  0.42979  0.41208  0.55985  1.0000
  O  Te38      1.0  0.38978  0.34217  0.59518  1.0000
  H   H78       1.0  0.28577  0.38464  0.25880  1.0000
  Mg  Mg19      1.0  0.44193  0.36567  0.67829  1.0000
  C   C157      1.0  0.28155  0.23858  0.61851  1.0000
  C   C158      1.0  0.27922  0.27201  0.53421  1.0000
  C  Sn39      1.0  0.24438  0.27992  0.43574  1.0000
  C  Sn40      1.0  0.21129  0.25383  0.42169  1.0000
  C   C159      1.0  0.21390  0.22047  0.50662  1.0000
  C   C160      1.0  0.24892  0.21284  0.60477  1.0000
  H   H79       1.0  0.30863  0.23268  0.69452  1.0000
  O  Te39      1.0  0.24257  0.31345  0.35232  1.0000
  O  Te40      1.0  0.17610  0.26103  0.32417  1.0000
  H   H80       1.0  0.25070  0.18696  0.67010  1.0000
  Mg  Mg20      1.0  0.18811  0.31059  0.23445  1.0000
  C   C161      1.0  0.11714  0.87168  0.49166  1.0000
  C   C162      1.0  0.15713  0.86601  0.55803  1.0000
  C  Sn41      1.0  0.17649  0.89372  0.65194  1.0000
  C  Sn42      1.0  0.15534  0.92771  0.67975  1.0000
  C   C163      1.0  0.11532  0.93310  0.61292  1.0000
  C   C164      1.0  0.09624  0.90518  0.51909  1.0000
  H   H81       1.0  0.10236  0.85007  0.41914  1.0000
  O  Te41      1.0  0.21647  0.88760  0.71728  1.0000
  O  Te42      1.0  0.17396  0.95587  0.77320  1.0000
  H   H82       1.0  0.06527  0.90957  0.46781  1.0000
  Mg  Mg21      1.0  0.22882  0.93438  0.83626  1.0000
  C   C165      1.0  0.66180  0.57391  0.34219  1.0000
  C   C166      1.0  0.62402  0.56648  0.42258  1.0000
  C  Sn43      1.0  0.60472  0.59376  0.51884  1.0000
  C  Sn44      1.0  0.62365  0.62911  0.53463  1.0000
  C   C167      1.0  0.66142  0.63627  0.45362  1.0000
  C   C168      1.0  0.68048  0.60876  0.35765  1.0000
  H   H83       1.0  0.67653  0.55264  0.26786  1.0000
  O  Te43      1.0  0.56699  0.58588  0.59837  1.0000
  O  Te44      1.0  0.60502  0.65688  0.63001  1.0000
  H   H84       1.0  0.70971  0.61453  0.29533  1.0000
  Mg  Mg22      1.0  0.55370  0.63278  0.71452  1.0000
  C   C169      1.0  0.76350  0.72246  0.41647  1.0000
  C   C170      1.0  0.72974  0.71784  0.52390  1.0000
  C  Sn45      1.0  0.71673  0.74701  0.62540  1.0000
  C  Sn46      1.0  0.73797  0.78142  0.61892  1.0000
  C   C171      1.0  0.77169  0.78577  0.51095  1.0000
  C   C172      1.0  0.78446  0.75639  0.40996  1.0000
  H   H85       1.0  0.77337  0.69973  0.33827  1.0000
  O  Te45      1.0  0.68295  0.74192  0.73206  1.0000
  O  Te46      1.0  0.72561  0.81105  0.71897  1.0000
  H   H86       1.0  0.81058  0.75999  0.32672  1.0000
  Mg  Mg23      1.0  0.67783  0.79055  0.84407  1.0000
  C   C173      1.0  0.82108  0.08888  0.67750  1.0000
  C   C174      1.0  0.82926  0.12385  0.61357  1.0000
  C  Sn47      1.0  0.86624  0.13033  0.52626  1.0000
  C  Sn48      1.0  0.89550  0.10120  0.50269  1.0000
  C   C175      1.0  0.88700  0.06630  0.56704  1.0000
  C   C176      1.0  0.84991  0.06012  0.65426  1.0000
  H   H87       1.0  0.79237  0.08409  0.74491  1.0000
  O  Te47      1.0  0.87393  0.16544  0.46326  1.0000
  O  Te48      1.0  0.93269  0.10691  0.41586  1.0000
  H   H88       1.0  0.84357  0.03303  0.70365  1.0000
  Mg  Mg24      1.0  0.92906  0.15959  0.35368  1.0000
