data_image0
_chemical_formula_structural       C3HCNHC3HCNHC3HCNHC3HCNHC3HCNHC3HCNHC3HCNHC3HCNHC2HC2HC2HC2HC3HCNHC3HCNHC3HCNHC3HCNHC3HCNHC3HCNHC3HCNHC3HCNHC2HC2HC2HC2HSnCSn2CSnTe4Mg2SnCSn2CSnTe4Mg2SnCSn2CSnTe4Mg2SnCSn2CSnTe4Mg2SnCSn2CSnTe4Mg2SnCSn2CSnTe4Mg2SnCSn2CSnTe4Mg2SnCSn2CSnTe4Mg2SnCSn2CSnTe4Mg2SnCSn2CSnTe4Mg2SnCSn2CSnTe4Mg2SnCSn2CSnTe4Mg2SnCSn2CSnTe4Mg2SnCSn2CSnTe4Mg2SnCSn2CSnTe4Mg2SnCSn2CSnTe4Mg2SnCSn2CSnTe4Mg2SnCSn2CSnTe4Mg2SnCSn2CSnTe4Mg2SnCSn2CSnTe4Mg2SnCSn2CSnTe4Mg2SnCSn2CSnTe4Mg2SnCSn2CSnTe4Mg2SnCSn2CSnTe4Mg2
_chemical_formula_sum              "C128 H40 N16 Sn96 Te96 Mg48"
_cell_length_a       31.8451
_cell_length_b       36.193
_cell_length_c       8.12167
_cell_angle_alpha    90.5219
_cell_angle_beta     90.1528
_cell_angle_gamma    89.9837

_symmetry_space_group_name_H-M    'P1'
_space_group_IT_number       1

loop_
  _space_group_symop_operation_xyz
  'x, y, z'

loop_
  _atom_site_type_symbol
  _atom_site_label
  _atom_site_symmetry_multiplicity
  _atom_site_fract_x
  _atom_site_fract_y
  _atom_site_fract_z
  _atom_site_occupancy
  C   C1        1.0  0.54737  0.53502  0.89354  1.0000
  C   C2        1.0  0.48122  0.56850  0.86471  1.0000
  C   C3        1.0  0.41267  0.53562  0.90204  1.0000
  H   H1        1.0  0.46473  0.59425  0.84259  1.0000
  C   C4        1.0  0.19283  0.81162  0.00461  1.0000
  N   N1        1.0  0.19502  0.83935  0.10594  1.0000
  H   H2        1.0  0.84032  0.19821  0.96272  1.0000
  C   C5        1.0  0.95540  0.03552  0.11830  1.0000
  C   C6        1.0  0.02148  0.06917  0.14464  1.0000
  C   C7        1.0  0.09005  0.03640  0.10237  1.0000
  H   H3        1.0  0.03800  0.09497  0.16670  1.0000
  C   C8        1.0  0.30841  0.31376  0.02512  1.0000
  N   N2        1.0  0.30503  0.34076  0.92231  1.0000
  H   H4        1.0  0.67180  0.69250  0.11628  1.0000
  C   C9        1.0  0.45683  0.46685  0.88330  1.0000
  C   C10       1.0  0.52309  0.43328  0.86520  1.0000
  C   C11       1.0  0.59106  0.46626  0.91161  1.0000
  H   H5        1.0  0.53987  0.40744  0.84716  1.0000
  C   C12       1.0  0.80980  0.19141  0.01791  1.0000
  N   N3        1.0  0.80164  0.15977  0.08347  1.0000
  H   H6        1.0  0.17014  0.81015  0.90240  1.0000
  C   C13       1.0  0.04605  0.96750  0.11654  1.0000
  C   C14       1.0  0.97986  0.93399  0.14178  1.0000
  C   C15       1.0  0.91157  0.96685  0.10006  1.0000
  H   H7        1.0  0.96321  0.90829  0.16334  1.0000
  C   C16       1.0  0.69767  0.68835  0.02860  1.0000
  N   N4        1.0  0.70164  0.65916  0.93674  1.0000
  H   H8        1.0  0.33290  0.31250  0.12050  1.0000
  C   C17       1.0  0.54666  0.46630  0.89294  1.0000
  C   C18       1.0  0.48022  0.43358  0.85919  1.0000
  C   C19       1.0  0.41229  0.46735  0.89667  1.0000
  H   H9        1.0  0.46334  0.40806  0.83439  1.0000
  C   C20       1.0  0.19445  0.19097  0.99539  1.0000
  N   N5        1.0  0.19626  0.16415  0.09948  1.0000
  H   H10       1.0  0.84160  0.80439  0.91312  1.0000
  C   C21       1.0  0.95609  0.96691  0.11600  1.0000
  C   C22       1.0  0.02278  0.93430  0.14202  1.0000
  C   C23       1.0  0.09055  0.96806  0.10083  1.0000
  H   H11       1.0  0.03984  0.90884  0.16417  1.0000
  C   C24       1.0  0.30675  0.68887  0.03882  1.0000
  N   N6        1.0  0.30457  0.66190  0.93337  1.0000
  H   H12       1.0  0.65928  0.30274  0.08223  1.0000
  C   C25       1.0  0.45724  0.53562  0.88766  1.0000
  C   C26       1.0  0.52416  0.56825  0.86814  1.0000
  C   C27       1.0  0.59188  0.53438  0.91063  1.0000
  H   H13       1.0  0.54126  0.59382  0.84952  1.0000
  C   C28       1.0  0.81392  0.80868  0.99148  1.0000
  N   N7        1.0  0.80731  0.83864  0.07584  1.0000
  H   H14       1.0  0.17174  0.19172  0.89320  1.0000
  C   C29       1.0  0.04548  0.03632  0.11763  1.0000
  C   C30       1.0  0.97854  0.06884  0.14496  1.0000
  C   C31       1.0  0.91087  0.03486  0.10371  1.0000
  H   H15       1.0  0.96139  0.09431  0.16794  1.0000
  C   C32       1.0  0.68932  0.30874  0.02157  1.0000
  N   N8        1.0  0.69733  0.33970  0.94973  1.0000
  H   H16       1.0  0.33036  0.69012  0.13776  1.0000
  C   C33       1.0  0.39195  0.50153  0.90862  1.0000
  C   C34       1.0  0.52454  0.50083  0.89213  1.0000
  H   H17       1.0  0.35824  0.50158  0.92943  1.0000
  C   C35       1.0  0.61204  0.50014  0.92100  1.0000
  C   C36       1.0  0.47948  0.50111  0.88831  1.0000
  H   H18       1.0  0.64576  0.49985  0.94230  1.0000
  C   C37       1.0  0.11078  0.00231  0.09189  1.0000
  C   C38       1.0  0.97829  0.00140  0.11570  1.0000
  H   H19       1.0  0.14450  0.00238  0.07148  1.0000
  C   C39       1.0  0.89051  0.00070  0.09226  1.0000
  C   C40       1.0  0.02336  0.00175  0.11569  1.0000
  H   H20       1.0  0.85673  0.00045  0.07157  1.0000
  C   C41       1.0  0.54354  0.53353  0.39860  1.0000
  C   C42       1.0  0.47727  0.56612  0.36036  1.0000
  C   C43       1.0  0.40926  0.53238  0.39210  1.0000
  H   H21       1.0  0.46038  0.59159  0.33629  1.0000
  C   C44       1.0  0.18928  0.80716  0.50248  1.0000
  N   N9        1.0  0.19438  0.83673  0.59124  1.0000
  H   H22       1.0  0.82901  0.18984  0.39558  1.0000
  C   C45       1.0  0.95503  0.03360  0.61493  1.0000
  C   C46       1.0  0.02145  0.06618  0.65196  1.0000
  C   C47       1.0  0.08934  0.03278  0.60738  1.0000
  H   H23       1.0  0.03839  0.09152  0.68004  1.0000
  C   C48       1.0  0.30425  0.31156  0.52233  1.0000
  N   N10       1.0  0.30189  0.33794  0.41620  1.0000
  H   H24       1.0  0.66679  0.69045  0.65275  1.0000
  C   C49       1.0  0.45432  0.46414  0.38017  1.0000
  C   C50       1.0  0.52137  0.43159  0.36446  1.0000
  C   C51       1.0  0.58852  0.46547  0.42120  1.0000
  H   H25       1.0  0.53869  0.40608  0.34513  1.0000
  C   C52       1.0  0.80644  0.18870  0.49781  1.0000
  N   N11       1.0  0.80470  0.16137  0.59921  1.0000
  H   H26       1.0  0.16292  0.80326  0.41634  1.0000
  C   C53       1.0  0.04462  0.96444  0.61600  1.0000
  C   C54       1.0  0.97784  0.93172  0.63712  1.0000
  C   C55       1.0  0.91017  0.96546  0.59039  1.0000
  H   H27       1.0  0.96084  0.90618  0.65763  1.0000
  C   C56       1.0  0.68999  0.68910  0.55286  1.0000
  N   N12       1.0  0.69228  0.66182  0.44910  1.0000
  H   H28       1.0  0.32787  0.31098  0.62128  1.0000
  C   C57       1.0  0.54427  0.46483  0.39617  1.0000
  C   C58       1.0  0.47847  0.43125  0.35690  1.0000
  C   C59       1.0  0.40970  0.46416  0.39106  1.0000
  H   H29       1.0  0.46221  0.40545  0.33127  1.0000
  C   C60       1.0  0.19057  0.18858  0.49898  1.0000
  N   N13       1.0  0.19441  0.16079  0.59718  1.0000
  H   H30       1.0  0.82231  0.81190  0.38609  1.0000
  C   C61       1.0  0.95459  0.96488  0.60994  1.0000
  C   C62       1.0  0.02077  0.93152  0.64017  1.0000
  C   C63       1.0  0.08917  0.96462  0.60136  1.0000
  H   H31       1.0  0.03736  0.90587  0.66332  1.0000
  C   C64       1.0  0.30649  0.68720  0.52854  1.0000
  N   N14       1.0  0.30217  0.65885  0.43159  1.0000
  H   H32       1.0  0.67146  0.31169  0.64689  1.0000
  C   C65       1.0  0.45382  0.53288  0.38153  1.0000
  C   C66       1.0  0.52013  0.56644  0.36842  1.0000
  C   C67       1.0  0.58771  0.53363  0.42450  1.0000
  H   H33       1.0  0.53704  0.59215  0.35067  1.0000
  C   C68       1.0  0.80225  0.81231  0.49635  1.0000
  N   N15       1.0  0.80281  0.83902  0.60311  1.0000
  H   H34       1.0  0.16559  0.19062  0.40584  1.0000
  C   C69       1.0  0.04485  0.03313  0.62225  1.0000
  C   C70       1.0  0.97856  0.06641  0.64821  1.0000
  C   C71       1.0  0.91066  0.03368  0.59359  1.0000
  H   H35       1.0  0.96171  0.09197  0.67246  1.0000
  C   C72       1.0  0.69324  0.31179  0.54199  1.0000
  N   N16       1.0  0.69448  0.33814  0.43565  1.0000
  H   H36       1.0  0.33252  0.69045  0.61669  1.0000
  C   C73       1.0  0.38886  0.49822  0.39885  1.0000
  C   C74       1.0  0.52146  0.49899  0.39394  1.0000
  H   H37       1.0  0.35504  0.49818  0.41663  1.0000
  C   C75       1.0  0.60852  0.49972  0.43792  1.0000
  C   C76       1.0  0.47648  0.49865  0.38534  1.0000
  H   H38       1.0  0.64192  0.50006  0.46616  1.0000
  C   C77       1.0  0.10985  0.99871  0.59499  1.0000
  C   C78       1.0  0.97727  0.99911  0.61239  1.0000
  H   H39       1.0  0.14359  0.99875  0.57489  1.0000
  C   C79       1.0  0.89000  0.99969  0.57831  1.0000
  C   C80       1.0  0.02230  0.99888  0.61592  1.0000
  H   H40       1.0  0.85644  0.99987  0.55338  1.0000
  C  Sn1       1.0  0.38998  0.60531  0.05108  1.0000
  C   C81       1.0  0.38344  0.57412  0.96668  1.0000
  C  Sn2       1.0  0.35223  0.57184  0.84584  1.0000
  C  Sn3       1.0  0.32774  0.60342  0.80850  1.0000
  C   C82       1.0  0.33497  0.63662  0.89284  1.0000
  C  Sn4       1.0  0.36549  0.63689  0.01373  1.0000
  O  Te1       1.0  0.42135  0.60696  0.17140  1.0000
  O  Te2       1.0  0.34558  0.53831  0.76317  1.0000
  O  Te3       1.0  0.29635  0.60174  0.68807  1.0000
  O  Te4       1.0  0.37215  0.67039  0.09636  1.0000
  Mg  Mg1       1.0  0.29919  0.54989  0.60926  1.0000
  Mg  Mg2       1.0  0.41854  0.65885  0.25022  1.0000
  C  Sn5       1.0  0.27254  0.78149  0.08270  1.0000
  C   C83       1.0  0.23507  0.78565  0.99787  1.0000
  C  Sn6       1.0  0.21543  0.75357  0.93966  1.0000
  C  Sn7       1.0  0.23430  0.71865  0.96688  1.0000
  C   C84       1.0  0.27174  0.71450  0.05168  1.0000
  C  Sn8       1.0  0.29141  0.74657  0.10992  1.0000
  O  Te5       1.0  0.29161  0.81392  0.13981  1.0000
  O  Te6       1.0  0.17730  0.75639  0.85514  1.0000
  O  Te7       1.0  0.21519  0.68621  0.90968  1.0000
  O  Te8       1.0  0.32951  0.74377  0.19442  1.0000
  Mg  Mg3       1.0  0.16348  0.70432  0.80135  1.0000
  Mg  Mg4       1.0  0.34335  0.79581  0.24833  1.0000
  C  Sn9       1.0  0.11318  0.10901  0.96656  1.0000
  C   C85       1.0  0.11999  0.07342  0.04532  1.0000
  C  Sn10      1.0  0.15070  0.07095  0.16786  1.0000
  C  Sn11      1.0  0.17440  0.10266  0.21271  1.0000
  C   C86       1.0  0.16690  0.13618  0.13399  1.0000
  C  Sn12      1.0  0.13620  0.13868  0.01141  1.0000
  O  Te9       1.0  0.08232  0.11085  0.84441  1.0000
  O  Te10      1.0  0.15762  0.03711  0.24481  1.0000
  O  Te11      1.0  0.20528  0.10080  0.33497  1.0000
  O  Te12      1.0  0.12995  0.17454  0.93451  1.0000
  Mg  Mg5       1.0  0.20309  0.04853  0.40401  1.0000
  Mg  Mg6       1.0  0.08448  0.16316  0.77535  1.0000
  C  Sn13      1.0  0.61346  0.39825  0.06570  1.0000
  C   C87       1.0  0.62108  0.43222  0.97415  1.0000
  C  Sn14      1.0  0.65138  0.43249  0.85008  1.0000
  C  Sn15      1.0  0.67521  0.40018  0.81674  1.0000
  C   C88       1.0  0.66825  0.36829  0.90823  1.0000
  C  Sn16      1.0  0.63729  0.36594  0.03235  1.0000
  O  Te13      1.0  0.58301  0.39860  0.18914  1.0000
  O  Te14      1.0  0.65776  0.46474  0.76025  1.0000
  O  Te15      1.0  0.70567  0.39985  0.69318  1.0000
  O  Te16      1.0  0.63090  0.33372  0.12213  1.0000
  Mg  Mg7       1.0  0.70281  0.45055  0.60447  1.0000
  Mg  Mg8       1.0  0.58584  0.34787  0.27787  1.0000
  C  Sn17      1.0  0.76545  0.27748  0.90997  1.0000
  C   C89       1.0  0.72431  0.27677  0.96928  1.0000
  C  Sn18      1.0  0.71023  0.24593  0.06971  1.0000
  C  Sn19      1.0  0.73855  0.21725  0.11185  1.0000
  C   C90       1.0  0.77967  0.21798  0.05258  1.0000
  C  Sn20      1.0  0.79377  0.24881  0.95211  1.0000
  O  Te17      1.0  0.77817  0.30654  0.80975  1.0000
  O  Te18      1.0  0.66894  0.24581  0.12746  1.0000
  O  Te19      1.0  0.72579  0.18818  0.21215  1.0000
  O  Te20      1.0  0.83504  0.24894  0.89440  1.0000
  Mg  Mg9       1.0  0.66644  0.20028  0.26037  1.0000
  Mg  Mg10      1.0  0.83757  0.29446  0.76156  1.0000
  C  Sn21      1.0  0.81977  0.91189  0.13596  1.0000
  C   C91       1.0  0.82756  0.87900  0.04984  1.0000
  C  Sn22      1.0  0.86849  0.87310  0.99144  1.0000
  C  Sn23      1.0  0.90098  0.89649  0.01979  1.0000
  C   C92       1.0  0.89318  0.92935  0.10588  1.0000
  C  Sn24      1.0  0.85294  0.93733  0.16431  1.0000
  O  Te21      1.0  0.77929  0.91927  0.19323  1.0000
  O  Te22      1.0  0.87551  0.84005  0.90562  1.0000
  O  Te23      1.0  0.94216  0.89114  0.96243  1.0000
  O  Te24      1.0  0.84591  0.97036  0.25010  1.0000
  Mg  Mg11      1.0  0.93606  0.84243  0.85213  1.0000
  Mg  Mg12      1.0  0.78538  0.96799  0.30372  1.0000
  C  Sn25      1.0  0.37429  0.38083  0.04765  1.0000
  C   C93       1.0  0.33672  0.37640  0.96777  1.0000
  C  Sn26      1.0  0.32389  0.39890  0.83817  1.0000
  C  Sn27      1.0  0.34986  0.42849  0.78727  1.0000
  C   C94       1.0  0.38808  0.43496  0.86712  1.0000
  C  Sn28      1.0  0.40093  0.41247  0.99676  1.0000
  O  Te25      1.0  0.38648  0.35798  0.17692  1.0000
  O  Te26      1.0  0.28551  0.39189  0.76023  1.0000
  O  Te27      1.0  0.33763  0.45135  0.65790  1.0000
  O  Te28      1.0  0.43861  0.41742  0.07466  1.0000
  Mg  Mg13      1.0  0.28261  0.43069  0.59030  1.0000
  Mg  Mg14      1.0  0.44155  0.37863  0.24453  1.0000
  C  Sn29      1.0  0.22777  0.28383  0.95736  1.0000
  C   C95       1.0  0.26535  0.28425  0.04145  1.0000
  C  Sn30      1.0  0.28512  0.25240  0.09904  1.0000
  C  Sn31      1.0  0.26627  0.21736  0.07193  1.0000
  C   C96       1.0  0.22872  0.21696  0.98786  1.0000
  C  Sn32      1.0  0.20892  0.24879  0.93025  1.0000
  O  Te29      1.0  0.20857  0.31603  0.90087  1.0000
  O  Te30      1.0  0.32334  0.25556  0.18283  1.0000
  O  Te31      1.0  0.28550  0.18515  0.12851  1.0000
  O  Te32      1.0  0.17073  0.24565  0.84648  1.0000
  Mg  Mg15      1.0  0.33732  0.20370  0.23596  1.0000
  Mg  Mg16      1.0  0.15673  0.29748  0.79322  1.0000
  C  Sn33      1.0  0.16845  0.93158  0.14807  1.0000
  C   C97       1.0  0.12957  0.93694  0.07172  1.0000
  C  Sn34      1.0  0.10648  0.90677  0.01286  1.0000
  C  Sn35      1.0  0.12256  0.87047  0.03077  1.0000
  C   C98       1.0  0.16141  0.86513  0.10710  1.0000
  C  Sn36      1.0  0.18454  0.89529  0.16598  1.0000
  O  Te33      1.0  0.19100  0.96215  0.20599  1.0000
  O  Te34      1.0  0.06837  0.91486  0.93691  1.0000
  O  Te35      1.0  0.10065  0.84194  0.97276  1.0000
  O  Te36      1.0  0.22330  0.88925  0.24191  1.0000
  Mg  Mg17      1.0  0.04937  0.86434  0.87822  1.0000
  Mg  Mg18      1.0  0.24231  0.93975  0.30072  1.0000
  C  Sn37      1.0  0.67069  0.56886  0.87395  1.0000
  C   C99       1.0  0.63088  0.56439  0.94298  1.0000
  C  Sn38      1.0  0.60809  0.59288  0.00368  1.0000
  C  Sn39      1.0  0.62681  0.63067  0.99512  1.0000
  C   C100      1.0  0.66658  0.63514  0.92610  1.0000
  C  Sn40      1.0  0.68873  0.60462  0.86539  1.0000
  O  Te37      1.0  0.69223  0.53795  0.81402  1.0000
  O  Te38      1.0  0.56834  0.58771  0.07219  1.0000
  O  Te39      1.0  0.60455  0.65955  0.05512  1.0000
  O  Te40      1.0  0.72844  0.60977  0.79689  1.0000
  Mg  Mg19      1.0  0.55134  0.63839  0.13716  1.0000
  Mg  Mg20      1.0  0.74546  0.55912  0.73180  1.0000
  C  Sn41      1.0  0.78486  0.73908  0.88057  1.0000
  C   C101      1.0  0.78083  0.77448  0.94889  1.0000
  C  Sn42      1.0  0.75001  0.77958  0.06970  1.0000
  C  Sn43      1.0  0.72335  0.75074  0.12344  1.0000
  C   C102      1.0  0.72739  0.71536  0.05516  1.0000
  C  Sn44      1.0  0.75820  0.71024  0.93430  1.0000
  O  Te41      1.0  0.81521  0.73256  0.75994  1.0000
  O  Te42      1.0  0.74657  0.81519  0.13614  1.0000
  O  Te43      1.0  0.69299  0.75728  0.24416  1.0000
  O  Te44      1.0  0.76165  0.67465  0.86790  1.0000
  Mg  Mg21      1.0  0.70043  0.81036  0.29738  1.0000
  Mg  Mg22      1.0  0.80780  0.67944  0.70673  1.0000
  C  Sn45      1.0  0.87050  0.12030  0.95225  1.0000
  C   C103      1.0  0.83225  0.12457  0.03645  1.0000
  C  Sn46      1.0  0.82127  0.10264  0.17027  1.0000
  C  Sn47      1.0  0.84842  0.07382  0.22106  1.0000
  C   C104      1.0  0.88597  0.06752  0.13690  1.0000
  C  Sn48      1.0  0.89698  0.08944  0.00304  1.0000
  O  Te45      1.0  0.88085  0.14257  0.81881  1.0000
  O  Te46      1.0  0.78353  0.10947  0.25249  1.0000
  O  Te47      1.0  0.83804  0.05155  0.35462  1.0000
  O  Te48      1.0  0.93537  0.08467  0.92087  1.0000
  Mg  Mg23      1.0  0.78326  0.07167  0.42715  1.0000
  Mg  Mg24      1.0  0.93568  0.12246  0.74625  1.0000
  C  Sn49      1.0  0.38305  0.62708  0.47935  1.0000
  C   C105      1.0  0.34408  0.63326  0.40502  1.0000
  C  Sn50      1.0  0.32146  0.60389  0.33596  1.0000
  C  Sn51      1.0  0.33812  0.56757  0.34138  1.0000
  C   C106      1.0  0.37707  0.56140  0.41569  1.0000
  C  Sn52      1.0  0.39972  0.59076  0.48478  1.0000
  O  Te49      1.0  0.40512  0.65686  0.54763  1.0000
  O  Te50      1.0  0.28257  0.61075  0.26227  1.0000
  O  Te51      1.0  0.31602  0.53779  0.27302  1.0000
  O  Te52      1.0  0.43858  0.58391  0.55845  1.0000
  Mg  Mg25      1.0  0.26437  0.56113  0.18638  1.0000
  Mg  Mg26      1.0  0.45680  0.63351  0.63445  1.0000
  C  Sn53      1.0  0.20835  0.73148  0.46657  1.0000
  C   C107      1.0  0.21244  0.76671  0.53664  1.0000
  C  Sn54      1.0  0.25149  0.77919  0.59269  1.0000
  C  Sn55      1.0  0.28721  0.75598  0.57832  1.0000
  C   C108      1.0  0.28312  0.72078  0.50826  1.0000
  C  Sn56      1.0  0.24407  0.70827  0.45219  1.0000
  O  Te53      1.0  0.16900  0.71958  0.41135  1.0000
  O  Te54      1.0  0.25479  0.81451  0.66236  1.0000
  O  Te55      1.0  0.32657  0.76791  0.63361  1.0000
  O  Te56      1.0  0.24076  0.67297  0.38254  1.0000
  Mg  Mg27      1.0  0.31513  0.81826  0.71945  1.0000
  Mg  Mg28      1.0  0.18045  0.66920  0.32533  1.0000
  C  Sn57      1.0  0.15502  0.07780  0.73214  1.0000
  C   C109      1.0  0.11685  0.07124  0.65177  1.0000
  C  Sn58      1.0  0.10396  0.09384  0.52260  1.0000
  C  Sn59      1.0  0.12978  0.12361  0.47264  1.0000
  C   C110      1.0  0.16793  0.13015  0.55297  1.0000
  C  Sn60      1.0  0.18083  0.10757  0.68218  1.0000
  O  Te57      1.0  0.16727  0.05485  0.86096  1.0000
  O  Te58      1.0  0.06567  0.08674  0.44416  1.0000
  O  Te59      1.0  0.11749  0.14656  0.34371  1.0000
  O  Te60      1.0  0.21911  0.11465  0.76058  1.0000
  Mg  Mg29      1.0  0.06264  0.12573  0.27514  1.0000
  Mg  Mg30      1.0  0.22218  0.07566  0.92955  1.0000
  C  Sn61      1.0  0.61431  0.37030  0.48696  1.0000
  C   C111      1.0  0.65377  0.36491  0.41578  1.0000
  C  Sn62      1.0  0.67712  0.39502  0.36088  1.0000
  C  Sn63      1.0  0.66071  0.43129  0.37757  1.0000
  C   C112      1.0  0.62128  0.43667  0.44874  1.0000
  C  Sn64      1.0  0.59790  0.40657  0.50365  1.0000
  O  Te61      1.0  0.59151  0.33978  0.54099  1.0000
  O  Te62      1.0  0.71649  0.38894  0.29007  1.0000
  O  Te63      1.0  0.68354  0.46182  0.32346  1.0000
  O  Te64      1.0  0.55856  0.41264  0.57445  1.0000
  Mg  Mg31      1.0  0.73563  0.43939  0.23532  1.0000
  Mg  Mg32      1.0  0.53940  0.36221  0.62931  1.0000
  C  Sn65      1.0  0.72604  0.24531  0.66736  1.0000
  C   C113      1.0  0.72756  0.27844  0.58054  1.0000
  C  Sn66      1.0  0.75311  0.28165  0.44187  1.0000
  C  Sn67      1.0  0.77764  0.25109  0.38879  1.0000
  C   C114      1.0  0.77610  0.21798  0.47557  1.0000
  C  Sn68      1.0  0.75056  0.21476  0.61428  1.0000
  O  Te65      1.0  0.70027  0.24273  0.80564  1.0000
  O  Te66      1.0  0.75412  0.31505  0.35711  1.0000
  O  Te67      1.0  0.80342  0.25369  0.25039  1.0000
  O  Te68      1.0  0.74954  0.18137  0.69900  1.0000
  Mg  Mg33      1.0  0.79410  0.30497  0.17592  1.0000
  Mg  Mg34      1.0  0.70956  0.19141  0.88015  1.0000
  C  Sn69      1.0  0.88286  0.86987  0.53796  1.0000
  C   C115      1.0  0.84400  0.86566  0.61509  1.0000
  C  Sn70      1.0  0.82142  0.89660  0.66852  1.0000
  C  Sn71      1.0  0.83802  0.93250  0.64426  1.0000
  C   C116      1.0  0.87686  0.93669  0.56715  1.0000
  C  Sn72      1.0  0.89946  0.90576  0.51370  1.0000
  O  Te69      1.0  0.90488  0.83855  0.48553  1.0000
  O  Te70      1.0  0.78265  0.89170  0.74537  1.0000
  O  Te71      1.0  0.81596  0.96382  0.69677  1.0000
  O  Te72      1.0  0.93821  0.91065  0.43687  1.0000
  Mg  Mg35      1.0  0.76447  0.94291  0.79505  1.0000
  Mg  Mg36      1.0  0.95640  0.85947  0.38706  1.0000
  C  Sn73      1.0  0.33150  0.42851  0.35454  1.0000
  C   C117      1.0  0.37155  0.43345  0.42196  1.0000
  C  Sn74      1.0  0.39430  0.40320  0.47985  1.0000
  C  Sn75      1.0  0.37667  0.36727  0.47006  1.0000
  C   C118      1.0  0.33664  0.36234  0.40266  1.0000
  C  Sn76      1.0  0.31387  0.39258  0.34475  1.0000
  O  Te73      1.0  0.30933  0.45914  0.29741  1.0000
  O  Te74      1.0  0.43428  0.40883  0.54679  1.0000
  O  Te75      1.0  0.39888  0.33663  0.52727  1.0000
  O  Te76      1.0  0.27392  0.38696  0.27782  1.0000
  Mg  Mg37      1.0  0.45219  0.35839  0.60803  1.0000
  Mg  Mg38      1.0  0.25599  0.43738  0.21647  1.0000
  C  Sn77      1.0  0.22337  0.28148  0.45860  1.0000
  C   C119      1.0  0.26222  0.28395  0.53843  1.0000
  C  Sn78      1.0  0.28250  0.25210  0.59316  1.0000
  C  Sn79      1.0  0.26359  0.21704  0.56747  1.0000
  C   C120      1.0  0.22477  0.21458  0.48766  1.0000
  C  Sn80      1.0  0.20446  0.24642  0.43291  1.0000
  O  Te77      1.0  0.20366  0.31368  0.40491  1.0000
  O  Te78      1.0  0.32131  0.25527  0.67271  1.0000
  O  Te79      1.0  0.28333  0.18482  0.62124  1.0000
  O  Te80      1.0  0.16568  0.24326  0.35338  1.0000
  Mg  Mg39      1.0  0.33585  0.20340  0.72323  1.0000
  Mg  Mg40      1.0  0.15112  0.29510  0.30274  1.0000
  C  Sn81      1.0  0.17016  0.90259  0.71755  1.0000
  C   C121      1.0  0.16316  0.86959  0.63109  1.0000
  C  Sn82      1.0  0.13276  0.86781  0.50698  1.0000
  C  Sn83      1.0  0.10887  0.89967  0.46840  1.0000
  C   C122      1.0  0.11588  0.93264  0.55481  1.0000
  C  Sn84      1.0  0.14627  0.93445  0.67897  1.0000
  O  Te81      1.0  0.20072  0.90375  0.84115  1.0000
  O  Te82      1.0  0.12632  0.83450  0.42229  1.0000
  O  Te83      1.0  0.07829  0.89849  0.34469  1.0000
  O  Te84      1.0  0.15272  0.96773  0.76361  1.0000
  Mg  Mg41      1.0  0.08111  0.84677  0.26411  1.0000
  Mg  Mg42      1.0  0.19793  0.95550  0.92175  1.0000
  C  Sn85      1.0  0.62374  0.62165  0.57839  1.0000
  C   C123      1.0  0.66213  0.62799  0.50065  1.0000
  C  Sn86      1.0  0.67564  0.60473  0.37321  1.0000
  C  Sn87      1.0  0.65023  0.57452  0.32233  1.0000
  C   C124      1.0  0.61186  0.56819  0.40002  1.0000
  C  Sn88      1.0  0.59833  0.59144  0.52751  1.0000
  O  Te85      1.0  0.61085  0.64526  0.70551  1.0000
  O  Te86      1.0  0.71415  0.61162  0.29740  1.0000
  O  Te87      1.0  0.66315  0.55090  0.19510  1.0000
  O  Te88      1.0  0.55984  0.58457  0.60328  1.0000
  Mg  Mg43      1.0  0.71807  0.57168  0.12993  1.0000
  Mg  Mg44      1.0  0.55588  0.62449  0.77069  1.0000
  C  Sn89      1.0  0.73824  0.77391  0.66856  1.0000
  C   C125      1.0  0.77381  0.77688  0.56914  1.0000
  C  Sn90      1.0  0.78050  0.75179  0.44017  1.0000
  C  Sn91      1.0  0.75102  0.72314  0.40986  1.0000
  C   C126      1.0  0.71548  0.72019  0.50923  1.0000
  C  Sn92      1.0  0.70876  0.74527  0.63826  1.0000
  O  Te89      1.0  0.73218  0.79931  0.79680  1.0000
  O  Te90      1.0  0.81630  0.75531  0.34247  1.0000
  O  Te91      1.0  0.75711  0.69774  0.28150  1.0000
  O  Te92      1.0  0.67298  0.74176  0.73590  1.0000
  Mg  Mg45      1.0  0.81067  0.71399  0.18250  1.0000
  Mg  Mg46      1.0  0.67857  0.78307  0.89584  1.0000
  C  Sn93      1.0  0.83238  0.06943  0.63201  1.0000
  C   C127      1.0  0.87234  0.06493  0.56399  1.0000
  C  Sn94      1.0  0.89562  0.09566  0.51551  1.0000
  C  Sn95      1.0  0.87861  0.13164  0.53552  1.0000
  C   C128      1.0  0.83868  0.13613  0.60353  1.0000
  C  Sn96      1.0  0.81538  0.10541  0.65202  1.0000
  O  Te93      1.0  0.80967  0.03832  0.67962  1.0000
  O  Te94      1.0  0.93549  0.09047  0.44776  1.0000
  O  Te95      1.0  0.90136  0.16276  0.48784  1.0000
  O  Te96      1.0  0.77553  0.11060  0.71976  1.0000
  Mg  Mg47      1.0  0.95428  0.14147  0.40179  1.0000
  Mg  Mg48      1.0  0.75672  0.05961  0.76585  1.0000
