data_image0
_chemical_formula_structural       C3HC3HC11H5CNHC11H5CNHC9H5C9H5C5HCNH2C11H5CNC2HC2HOCH3OCH3OCH3OCH3C3HC9H5C11H5CNHC11H5CNHC9H5C9H5C5HCNH2C5HCNC2HC2HOCH3OCH3OCH3OCH3C9H5C3HC11H5CNHC11H5CNHC3HC9H5C5HCNH2C5HCNC2HC2HOCH3OCH3OCH3OCH3C9H5C3HC5HCNHC5HCNHC3HC3HC11H5CNH2C5HCNC2HC2HOCH3OCH3OCH3OCH3C2Sn2C2HTe2HMgC2Sn2C2HTe2HMgC2Sn2C2HTe2HMgC2Sn2C2HTe2HMgC2Sn2C2HTe2HMgC2Sn2C2HTe2HMgC2Sn2C2HTe2HMgC2Sn2C2HTe2HMgC2Sn2C2HTe2HMgC2Sn2C2HTe2HMgC2Sn2C2HTe2HMgC2Sn2C2HTe2HMgC2Sn2C2HTe2HMgC2Sn2C2HTe2HMgC2Sn2C2HTe2HMgC2Sn2C2HTe2HMg
_chemical_formula_sum              "C336 H200 N16 O16 Sn32 Te32 Mg16"
_cell_length_a       48.9811
_cell_length_b       57.538
_cell_length_c       8.13899
_cell_angle_alpha    89.3298
_cell_angle_beta     90.304
_cell_angle_gamma    89.9267

_symmetry_space_group_name_H-M    'P1'
_space_group_IT_number       1

loop_
  _space_group_symop_operation_xyz
  'x, y, z'

loop_
  _atom_site_type_symbol
  _atom_site_label
  _atom_site_symmetry_multiplicity
  _atom_site_fract_x
  _atom_site_fract_y
  _atom_site_fract_z
  _atom_site_occupancy
  C   C1        1.0  0.27796  0.27262  0.02827  1.0000
  C   C2        1.0  0.23466  0.29338  0.00233  1.0000
  C   C3        1.0  0.19056  0.27236  0.04987  1.0000
  H   H1        1.0  0.22365  0.30951  0.98013  1.0000
  C   C4        1.0  0.77948  0.77187  0.96778  1.0000
  C   C5        1.0  0.73650  0.79291  0.99534  1.0000
  C   C6        1.0  0.69206  0.77236  0.94974  1.0000
  H   H2        1.0  0.72576  0.80904  0.01883  1.0000
  C   C7        1.0  0.89065  0.60936  0.88306  1.0000
  C   C8        1.0  0.88490  0.58832  0.80336  1.0000
  C   C9        1.0  0.90223  0.56929  0.82055  1.0000
  C   C10       1.0  0.92630  0.57090  0.91632  1.0000
  C   C11       1.0  0.93212  0.59214  0.99598  1.0000
  C   C12       1.0  0.91451  0.61086  0.98021  1.0000
  C   C13       1.0  0.94434  0.55187  0.93171  1.0000
  C   C14       1.0  0.95967  0.53508  0.94059  1.0000
  C   C15       1.0  0.97933  0.51738  0.96408  1.0000
  C   C16       1.0  0.00333  0.52370  0.04953  1.0000
  C   C17       1.0  0.02437  0.50826  0.08784  1.0000
  H   H3        1.0  0.86671  0.58699  0.72668  1.0000
  H   H4        1.0  0.89778  0.55318  0.75739  1.0000
  H   H5        1.0  0.95050  0.59346  0.07076  1.0000
  H   H6        1.0  0.91861  0.62711  0.04246  1.0000
  H   H7        1.0  0.99540  0.46044  0.91407  1.0000
  C   C18       1.0  0.87232  0.62919  0.86427  1.0000
  N   N1        1.0  0.87493  0.64714  0.95754  1.0000
  H   H8        1.0  0.64373  0.87525  0.79816  1.0000
  C   C19       1.0  0.60856  0.89192  0.90800  1.0000
  C   C20       1.0  0.61448  0.91365  0.83496  1.0000
  C   C21       1.0  0.59700  0.93248  0.85273  1.0000
  C   C22       1.0  0.57256  0.93005  0.94267  1.0000
  C   C23       1.0  0.56661  0.90815  0.01602  1.0000
  C   C24       1.0  0.58428  0.88954  0.99908  1.0000
  C   C25       1.0  0.55399  0.94862  0.95853  1.0000
  C   C26       1.0  0.53633  0.96349  0.97585  1.0000
  C   C27       1.0  0.51710  0.98171  0.98511  1.0000
  C   C28       1.0  0.49159  0.98041  0.06796  1.0000
  C   C29       1.0  0.47511  0.00019  0.07267  1.0000
  H   H9        1.0  0.63288  0.91555  0.76155  1.0000
  H   H10       1.0  0.60164  0.94911  0.79474  1.0000
  H   H11       1.0  0.54800  0.90626  0.08727  1.0000
  H   H12       1.0  0.57989  0.87274  0.05552  1.0000
  H   H13       1.0  0.54257  0.00387  0.83516  1.0000
  C   C30       1.0  0.62725  0.87246  0.88751  1.0000
  N   N2        1.0  0.62417  0.85328  0.97010  1.0000
  H   H14       1.0  0.85680  0.62790  0.76667  1.0000
  C   C31       1.0  0.27806  0.22941  0.03121  1.0000
  C   C32       1.0  0.23492  0.20867  0.00195  1.0000
  C   C33       1.0  0.19065  0.22943  0.04763  1.0000
  C   C34       1.0  0.17412  0.20797  0.05192  1.0000
  C   C35       1.0  0.14895  0.20738  0.96755  1.0000
  C   C36       1.0  0.13304  0.18741  0.96513  1.0000
  C   C37       1.0  0.14143  0.16699  0.04818  1.0000
  C   C38       1.0  0.16643  0.16752  0.13496  1.0000
  C   C39       1.0  0.18223  0.18760  0.13745  1.0000
  H   H15       1.0  0.22405  0.19263  0.97773  1.0000
  H   H16       1.0  0.14249  0.22258  0.89664  1.0000
  H   H17       1.0  0.11415  0.18686  0.89452  1.0000
  H   H18       1.0  0.17355  0.15215  0.20160  1.0000
  H   H19       1.0  0.20094  0.18776  0.21002  1.0000
  C   C40       1.0  0.77922  0.72869  0.96901  1.0000
  C   C41       1.0  0.73586  0.70819  0.99557  1.0000
  C   C42       1.0  0.69178  0.72943  0.94790  1.0000
  C   C43       1.0  0.67502  0.70813  0.94200  1.0000
  C   C44       1.0  0.68305  0.68803  0.85714  1.0000
  C   C45       1.0  0.66714  0.66800  0.85834  1.0000
  C   C46       1.0  0.64214  0.66731  0.94349  1.0000
  C   C47       1.0  0.63378  0.68751  0.02535  1.0000
  C   C48       1.0  0.64977  0.70743  0.02410  1.0000
  H   H20       1.0  0.72476  0.69218  0.01911  1.0000
  H   H21       1.0  0.70179  0.68841  0.78608  1.0000
  H   H22       1.0  0.67416  0.65284  0.79194  1.0000
  H   H23       1.0  0.61482  0.68682  0.09406  1.0000
  H   H24       1.0  0.64334  0.72243  0.09420  1.0000
  C   C49       1.0  0.94759  0.94602  0.96172  1.0000
  C   C50       1.0  0.96493  0.96078  0.99041  1.0000
  C   C51       1.0  0.98384  0.97902  0.01215  1.0000
  C   C52       1.0  0.00935  0.97713  0.09613  1.0000
  C   C53       1.0  0.02624  0.99657  0.10264  1.0000
  H   H25       1.0  0.95739  0.00265  0.87881  1.0000
  C   C54       1.0  0.87355  0.87098  0.87234  1.0000
  N   N3        1.0  0.87693  0.85173  0.95400  1.0000
  H   H26       1.0  0.64077  0.62941  0.75959  1.0000
  H   H27       1.0  0.85652  0.87413  0.78630  1.0000
  C   C55       1.0  0.60886  0.61014  0.88724  1.0000
  C   C56       1.0  0.61415  0.58927  0.80415  1.0000
  C   C57       1.0  0.59721  0.57008  0.82350  1.0000
  C   C58       1.0  0.57391  0.57138  0.92452  1.0000
  C   C59       1.0  0.56866  0.59238  0.00842  1.0000
  C   C60       1.0  0.58591  0.61126  0.99077  1.0000
  C   C61       1.0  0.55566  0.55255  0.94147  1.0000
  C   C62       1.0  0.53819  0.53754  0.95908  1.0000
  C   C63       1.0  0.51907  0.51932  0.97482  1.0000
  C   C64       1.0  0.49210  0.52213  0.03591  1.0000
  C   C65       1.0  0.47513  0.50279  0.04485  1.0000
  H   H28       1.0  0.63166  0.58829  0.72267  1.0000
  H   H29       1.0  0.60126  0.55412  0.75770  1.0000
  H   H30       1.0  0.55096  0.59338  0.08813  1.0000
  H   H31       1.0  0.58218  0.62736  0.05581  1.0000
  H   H32       1.0  0.54740  0.49467  0.87368  1.0000
  C   C66       1.0  0.62664  0.63023  0.86404  1.0000
  N   N4        1.0  0.62504  0.64794  0.96025  1.0000
  C   C67       1.0  0.17725  0.25086  0.06000  1.0000
  C   C68       1.0  0.26339  0.25101  0.03127  1.0000
  H   H33       1.0  0.15538  0.25078  0.08262  1.0000
  C   C69       1.0  0.32028  0.25102  0.05855  1.0000
  C   C70       1.0  0.23410  0.25097  0.03148  1.0000
  H   H34       1.0  0.34218  0.25106  0.08115  1.0000
  O   O1        1.0  0.04603  0.51842  0.16668  1.0000
  C   C71       1.0  0.06890  0.50472  0.22215  1.0000
  H   H35       1.0  0.08186  0.51687  0.28963  1.0000
  H   H36       1.0  0.06243  0.49058  0.30457  1.0000
  H   H37       1.0  0.08013  0.49752  0.11796  1.0000
  O   O2        1.0  0.48003  0.54251  0.08284  1.0000
  C   C72       1.0  0.49605  0.56144  0.14507  1.0000
  H   H38       1.0  0.48181  0.57143  0.22016  1.0000
  H   H39       1.0  0.51314  0.55527  0.22142  1.0000
  H   H40       1.0  0.50386  0.57242  0.04484  1.0000
  O   O3        1.0  0.48008  0.96150  0.14282  1.0000
  C   C73       1.0  0.49515  0.94038  0.17264  1.0000
  H   H41       1.0  0.48219  0.93027  0.25624  1.0000
  H   H42       1.0  0.49831  0.93086  0.05817  1.0000
  H   H43       1.0  0.51483  0.94379  0.23222  1.0000
  O   O4        1.0  0.02004  0.95802  0.17510  1.0000
  C   C74       1.0  0.00725  0.93564  0.16471  1.0000
  H   H44       1.0  0.02119  0.92388  0.23106  1.0000
  H   H45       1.0  0.98716  0.93562  0.22382  1.0000
  H   H46       1.0  0.00519  0.93008  0.03674  1.0000
  C   C75       1.0  0.72071  0.72908  0.96634  1.0000
  C   C76       1.0  0.76377  0.70799  0.99693  1.0000
  C   C77       1.0  0.80815  0.72869  0.95294  1.0000
  H   H47       1.0  0.77460  0.69182  0.02139  1.0000
  C   C78       1.0  0.21955  0.22935  0.03020  1.0000
  C   C79       1.0  0.26283  0.20869  0.00287  1.0000
  C   C80       1.0  0.30697  0.22956  0.04975  1.0000
  C   C81       1.0  0.32382  0.20830  0.05773  1.0000
  C   C82       1.0  0.31604  0.18796  0.14384  1.0000
  C   C83       1.0  0.33236  0.16813  0.14541  1.0000
  C   C84       1.0  0.35754  0.16797  0.06208  1.0000
  C   C85       1.0  0.36558  0.18837  0.97844  1.0000
  C   C86       1.0  0.34918  0.20805  0.97679  1.0000
  H   H48       1.0  0.27379  0.19266  0.97942  1.0000
  H   H49       1.0  0.29719  0.18803  0.21385  1.0000
  H   H50       1.0  0.32555  0.15274  0.21233  1.0000
  H   H51       1.0  0.38465  0.18795  0.91074  1.0000
  H   H52       1.0  0.35532  0.22321  0.90505  1.0000
  C   C87       1.0  0.10866  0.39180  0.13629  1.0000
  C   C88       1.0  0.11456  0.41271  0.21748  1.0000
  C   C89       1.0  0.09753  0.43193  0.19981  1.0000
  C   C90       1.0  0.07367  0.43068  0.10179  1.0000
  C   C91       1.0  0.06778  0.40960  0.02032  1.0000
  C   C92       1.0  0.08506  0.39067  0.03668  1.0000
  C   C93       1.0  0.05588  0.44984  0.08420  1.0000
  C   C94       1.0  0.04072  0.46669  0.06971  1.0000
  C   C95       1.0  0.02151  0.48460  0.04037  1.0000
  C   C96       1.0  0.99766  0.47835  0.95283  1.0000
  C   C97       1.0  0.97674  0.49386  0.91341  1.0000
  H   H53       1.0  0.13262  0.41377  0.29561  1.0000
  H   H54       1.0  0.10208  0.44792  0.26414  1.0000
  H   H55       1.0  0.04961  0.40865  0.94333  1.0000
  H   H56       1.0  0.08090  0.37452  0.97311  1.0000
  H   H57       1.0  0.00541  0.54160  0.08866  1.0000
  C   C98       1.0  0.12659  0.37169  0.15502  1.0000
  N   N5        1.0  0.12429  0.35425  0.05677  1.0000
  H   H58       1.0  0.36093  0.12983  0.25192  1.0000
  C   C99       1.0  0.39293  0.11157  0.11789  1.0000
  C   C100      1.0  0.38869  0.09001  0.19741  1.0000
  C   C101      1.0  0.40574  0.07119  0.16756  1.0000
  C   C102      1.0  0.42810  0.07359  0.05974  1.0000
  C   C103      1.0  0.43254  0.09540  0.98168  1.0000
  C   C104      1.0  0.41516  0.11388  0.00959  1.0000
  C   C105      1.0  0.44605  0.05492  0.03030  1.0000
  C   C106      1.0  0.46291  0.03971  0.00374  1.0000
  C   C107      1.0  0.48162  0.02115  0.99073  1.0000
  C   C108      1.0  0.50649  0.02214  0.90084  1.0000
  C   C109      1.0  0.52357  0.00284  0.90300  1.0000
  H   H59       1.0  0.37191  0.08805  0.28361  1.0000
  H   H60       1.0  0.40234  0.05457  0.22896  1.0000
  H   H61       1.0  0.44951  0.09733  0.89701  1.0000
  H   H62       1.0  0.41814  0.13051  0.94749  1.0000
  H   H63       1.0  0.45615  0.99910  0.14100  1.0000
  C   C110      1.0  0.37457  0.13113  0.14526  1.0000
  N   N6        1.0  0.37512  0.14897  0.04701  1.0000
  H   H64       1.0  0.14145  0.37225  0.25677  1.0000
  C   C111      1.0  0.72101  0.77231  0.96705  1.0000
  C   C112      1.0  0.76440  0.79270  0.99523  1.0000
  C   C113      1.0  0.80837  0.77153  0.95135  1.0000
  C   C114      1.0  0.82520  0.79275  0.94589  1.0000
  C   C115      1.0  0.85023  0.79313  0.03156  1.0000
  C   C116      1.0  0.86666  0.81278  0.02995  1.0000
  C   C117      1.0  0.85890  0.83297  0.94203  1.0000
  C   C118      1.0  0.83403  0.83258  0.85367  1.0000
  C   C119      1.0  0.81768  0.81284  0.85542  1.0000
  H   H65       1.0  0.77551  0.80866  0.01840  1.0000
  H   H66       1.0  0.85617  0.77807  0.10554  1.0000
  H   H67       1.0  0.88557  0.81330  0.10038  1.0000
  H   H68       1.0  0.82767  0.84755  0.78003  1.0000
  H   H69       1.0  0.79915  0.81257  0.78120  1.0000
  C   C120      1.0  0.21945  0.27256  0.03085  1.0000
  C   C121      1.0  0.26257  0.29340  0.00070  1.0000
  C   C122      1.0  0.30691  0.27245  0.04422  1.0000
  C   C123      1.0  0.32376  0.29370  0.04565  1.0000
  C   C124      1.0  0.31650  0.31383  0.13274  1.0000
  C   C125      1.0  0.33307  0.33343  0.13264  1.0000
  C   C126      1.0  0.35796  0.33370  0.04597  1.0000
  C   C127      1.0  0.36538  0.31354  0.96054  1.0000
  C   C128      1.0  0.34871  0.29403  0.96052  1.0000
  H   H70       1.0  0.27342  0.30953  0.97672  1.0000
  H   H71       1.0  0.29805  0.31366  0.20654  1.0000
  H   H72       1.0  0.32693  0.34834  0.20464  1.0000
  H   H73       1.0  0.38428  0.31393  0.89113  1.0000
  H   H74       1.0  0.35448  0.27900  0.88863  1.0000
  C   C129      1.0  0.05586  0.05162  0.06143  1.0000
  C   C130      1.0  0.03837  0.03660  0.04644  1.0000
  C   C131      1.0  0.01925  0.01837  0.03276  1.0000
  C   C132      1.0  0.99326  0.02052  0.95408  1.0000
  C   C133      1.0  0.97677  0.00091  0.94332  1.0000
  H   H75       1.0  0.04572  0.99467  0.16579  1.0000
  C   C134      1.0  0.12638  0.12961  0.12761  1.0000
  N   N7        1.0  0.12440  0.14761  0.03125  1.0000
  H   H76       1.0  0.35486  0.37477  0.19088  1.0000
  H   H77       1.0  0.14082  0.12860  0.23151  1.0000
  C   C135      1.0  0.44726  0.44699  0.04757  1.0000
  C   C136      1.0  0.46449  0.46197  0.02176  1.0000
  C   C137      1.0  0.48328  0.48027  0.99715  1.0000
  C   C138      1.0  0.51015  0.47755  0.93357  1.0000
  C   C139      1.0  0.52707  0.49694  0.92387  1.0000
  H   H78       1.0  0.45476  0.50518  0.09421  1.0000
  C   C140      1.0  0.37266  0.37153  0.11247  1.0000
  N   N8        1.0  0.37644  0.35224  0.03513  1.0000
  C   C141      1.0  0.82164  0.75005  0.94152  1.0000
  C   C142      1.0  0.73545  0.75060  0.96554  1.0000
  H   H79       1.0  0.84354  0.74993  0.92045  1.0000
  C   C143      1.0  0.67858  0.75099  0.93703  1.0000
  C   C144      1.0  0.76474  0.75038  0.96650  1.0000
  H   H80       1.0  0.65666  0.75119  0.91488  1.0000
  O   O5        1.0  0.95522  0.48386  0.83269  1.0000
  C   C145      1.0  0.93186  0.49739  0.78200  1.0000
  H   H81       1.0  0.91960  0.48551  0.70779  1.0000
  H   H82       1.0  0.93774  0.51236  0.70560  1.0000
  H   H83       1.0  0.92029  0.50331  0.88899  1.0000
  O   O6        1.0  0.52237  0.45736  0.88378  1.0000
  C   C146      1.0  0.50629  0.43713  0.84833  1.0000
  H   H84       1.0  0.52036  0.42541  0.78549  1.0000
  H   H85       1.0  0.48896  0.44144  0.76742  1.0000
  H   H86       1.0  0.49885  0.42870  0.96098  1.0000
  O   O7        1.0  0.51464  0.04009  0.79998  1.0000
  C   C147      1.0  0.51205  0.06378  0.85171  1.0000
  H   H87       1.0  0.52172  0.07403  0.75386  1.0000
  H   H88       1.0  0.52302  0.06646  0.96793  1.0000
  H   H89       1.0  0.49062  0.06891  0.86448  1.0000
  O   O8        1.0  0.98143  0.04034  0.89141  1.0000
  C   C148      1.0  0.99745  0.06015  0.84190  1.0000
  H   H90       1.0  0.98406  0.07013  0.75886  1.0000
  H   H91       1.0  0.01593  0.05502  0.77627  1.0000
  H   H92       1.0  0.00294  0.07071  0.94824  1.0000
  C   C149      1.0  0.27875  0.27159  0.52999  1.0000
  C   C150      1.0  0.23526  0.29207  0.50418  1.0000
  C   C151      1.0  0.19131  0.27078  0.54807  1.0000
  C   C152      1.0  0.17449  0.29209  0.55425  1.0000
  C   C153      1.0  0.14945  0.29327  0.46855  1.0000
  C   C154      1.0  0.13321  0.31308  0.47373  1.0000
  C   C155      1.0  0.14111  0.33262  0.56509  1.0000
  C   C156      1.0  0.16601  0.33143  0.65279  1.0000
  C   C157      1.0  0.18219  0.31158  0.64725  1.0000
  H   H93       1.0  0.22410  0.30811  0.48140  1.0000
  H   H94       1.0  0.14321  0.27881  0.39202  1.0000
  H   H95       1.0  0.11428  0.31419  0.40363  1.0000
  H   H96       1.0  0.17245  0.34580  0.72933  1.0000
  H   H97       1.0  0.20075  0.31058  0.72094  1.0000
  C   C158      1.0  0.77989  0.77102  0.46829  1.0000
  C   C159      1.0  0.73662  0.79174  0.49330  1.0000
  C   C160      1.0  0.69244  0.77081  0.45052  1.0000
  H   H98       1.0  0.72562  0.80779  0.51533  1.0000
  C   C161      1.0  0.88937  0.60775  0.37474  1.0000
  C   C162      1.0  0.88229  0.58631  0.30458  1.0000
  C   C163      1.0  0.89936  0.56710  0.32068  1.0000
  C   C164      1.0  0.92457  0.56895  0.40465  1.0000
  C   C165      1.0  0.93187  0.59065  0.47297  1.0000
  C   C166      1.0  0.91444  0.60954  0.45962  1.0000
  C   C167      1.0  0.94241  0.54978  0.42145  1.0000
  C   C168      1.0  0.95832  0.53349  0.43801  1.0000
  C   C169      1.0  0.97773  0.51562  0.46152  1.0000
  C   C170      1.0  0.00395  0.52158  0.51913  1.0000
  C   C171      1.0  0.02405  0.50499  0.55181  1.0000
  H   H99       1.0  0.86320  0.58485  0.23632  1.0000
  H   H100      1.0  0.89379  0.55060  0.26607  1.0000
  H   H101      1.0  0.95125  0.59211  0.53777  1.0000
  H   H102      1.0  0.91965  0.62613  0.51411  1.0000
  H   H103      1.0  0.98694  0.45700  0.44769  1.0000
  C   C172      1.0  0.87113  0.62769  0.35884  1.0000
  N   N9        1.0  0.87468  0.64581  0.44928  1.0000
  H   H104      1.0  0.64134  0.87262  0.29241  1.0000
  C   C173      1.0  0.60740  0.88945  0.41479  1.0000
  C   C174      1.0  0.61238  0.91118  0.33932  1.0000
  C   C175      1.0  0.59472  0.92978  0.36167  1.0000
  C   C176      1.0  0.57101  0.92702  0.45815  1.0000
  C   C177      1.0  0.56604  0.90515  0.53433  1.0000
  C   C178      1.0  0.58396  0.88682  0.51320  1.0000
  C   C179      1.0  0.55246  0.94556  0.47655  1.0000
  C   C180      1.0  0.53567  0.96124  0.48851  1.0000
  C   C181      1.0  0.51755  0.98026  0.49514  1.0000
  C   C182      1.0  0.48949  0.97822  0.53767  1.0000
  C   C183      1.0  0.47322  0.99802  0.53710  1.0000
  H   H105      1.0  0.63015  0.91332  0.26084  1.0000
  H   H106      1.0  0.59852  0.94645  0.30186  1.0000
  H   H107      1.0  0.54814  0.90310  0.61161  1.0000
  H   H108      1.0  0.58047  0.87002  0.57199  1.0000
  H   H109      1.0  0.54888  0.00434  0.41740  1.0000
  C   C184      1.0  0.62608  0.87011  0.38966  1.0000
  N   N10       1.0  0.62411  0.85126  0.47727  1.0000
  H   H110      1.0  0.85479  0.62628  0.26636  1.0000
  C   C185      1.0  0.27921  0.22836  0.53426  1.0000
  C   C186      1.0  0.23620  0.20728  0.51054  1.0000
  C   C187      1.0  0.19177  0.22790  0.54977  1.0000
  H   H111      1.0  0.22534  0.19115  0.48928  1.0000
  C   C188      1.0  0.78000  0.72782  0.46836  1.0000
  C   C189      1.0  0.73683  0.70696  0.49284  1.0000
  C   C190      1.0  0.69259  0.72795  0.44719  1.0000
  C   C191      1.0  0.67587  0.70666  0.44058  1.0000
  C   C192      1.0  0.68354  0.68677  0.35186  1.0000
  C   C193      1.0  0.66727  0.66701  0.34940  1.0000
  C   C194      1.0  0.64230  0.66633  0.43505  1.0000
  C   C195      1.0  0.63428  0.68634  0.52022  1.0000
  C   C196      1.0  0.65069  0.70599  0.52318  1.0000
  H   H112      1.0  0.72586  0.69083  0.51468  1.0000
  H   H113      1.0  0.70213  0.68724  0.27942  1.0000
  H   H114      1.0  0.67369  0.65226  0.27665  1.0000
  H   H115      1.0  0.61518  0.68570  0.58760  1.0000
  H   H116      1.0  0.64454  0.72083  0.59584  1.0000
  C   C197      1.0  0.94493  0.94725  0.44791  1.0000
  C   C198      1.0  0.96173  0.96252  0.47441  1.0000
  C   C199      1.0  0.98009  0.98112  0.49649  1.0000
  C   C200      1.0  0.00713  0.97880  0.55987  1.0000
  C   C201      1.0  0.02389  0.99830  0.56197  1.0000
  H   H117      1.0  0.95066  0.00552  0.39755  1.0000
  C   C202      1.0  0.87325  0.87046  0.36362  1.0000
  N   N11       1.0  0.87651  0.85169  0.45090  1.0000
  H   H118      1.0  0.64722  0.62452  0.30015  1.0000
  H   H119      1.0  0.85680  0.87279  0.27239  1.0000
  C   C203      1.0  0.55418  0.55286  0.44085  1.0000
  C   C204      1.0  0.53660  0.53802  0.46128  1.0000
  C   C205      1.0  0.51763  0.51968  0.47471  1.0000
  C   C206      1.0  0.49260  0.52060  0.56268  1.0000
  C   C207      1.0  0.47652  0.50065  0.57078  1.0000
  H   H120      1.0  0.54322  0.49795  0.32551  1.0000
  C   C208      1.0  0.62898  0.62790  0.37442  1.0000
  N   N12       1.0  0.62431  0.64750  0.44568  1.0000
  C   C209      1.0  0.17812  0.24925  0.55813  1.0000
  C   C210      1.0  0.26439  0.24988  0.53450  1.0000
  H   H121      1.0  0.15615  0.24906  0.57689  1.0000
  C   C211      1.0  0.32138  0.25027  0.55526  1.0000
  C   C212      1.0  0.23510  0.24967  0.53555  1.0000
  H   H122      1.0  0.34340  0.25040  0.57381  1.0000
  O   O9        1.0  0.04880  0.51386  0.60007  1.0000
  C   C213      1.0  0.06571  0.50081  0.71407  1.0000
  H   H123      1.0  0.07561  0.51379  0.79195  1.0000
  H   H124      1.0  0.05350  0.48905  0.79054  1.0000
  H   H125      1.0  0.08115  0.49076  0.64814  1.0000
  O   O10       1.0  0.48149  0.53911  0.64265  1.0000
  C   C214      1.0  0.49512  0.56116  0.65254  1.0000
  H   H126      1.0  0.48184  0.57165  0.73050  1.0000
  H   H127      1.0  0.51533  0.55948  0.71024  1.0000
  H   H128      1.0  0.49694  0.56937  0.53070  1.0000
  O   O11       1.0  0.47633  0.95772  0.57375  1.0000
  C   C215      1.0  0.48996  0.94113  0.68040  1.0000
  H   H129      1.0  0.47416  0.93399  0.76150  1.0000
  H   H130      1.0  0.49921  0.92721  0.60831  1.0000
  H   H131      1.0  0.50579  0.94951  0.75446  1.0000
  O   O12       1.0  0.01969  0.95901  0.61677  1.0000
  C   C216      1.0  0.00439  0.93825  0.65206  1.0000
  H   H132      1.0  0.01886  0.92696  0.71835  1.0000
  H   H133      1.0  0.98664  0.94186  0.72955  1.0000
  H   H134      1.0  0.99763  0.92976  0.53909  1.0000
  C   C217      1.0  0.72151  0.72778  0.46491  1.0000
  C   C218      1.0  0.76473  0.70699  0.49478  1.0000
  C   C219      1.0  0.80894  0.72799  0.45242  1.0000
  C   C220      1.0  0.82542  0.70653  0.44479  1.0000
  C   C221      1.0  0.85073  0.70516  0.52726  1.0000
  C   C222      1.0  0.86638  0.68500  0.52432  1.0000
  C   C223      1.0  0.85750  0.66525  0.43877  1.0000
  C   C224      1.0  0.83237  0.66662  0.35363  1.0000
  C   C225      1.0  0.81692  0.68689  0.35576  1.0000
  H   H135      1.0  0.77574  0.69088  0.51807  1.0000
  H   H136      1.0  0.85762  0.71978  0.60017  1.0000
  H   H137      1.0  0.88557  0.68378  0.59177  1.0000
  H   H138      1.0  0.82506  0.65194  0.28295  1.0000
  H   H139      1.0  0.79821  0.68794  0.28358  1.0000
  C   C226      1.0  0.22072  0.22797  0.53559  1.0000
  C   C227      1.0  0.26410  0.20746  0.51005  1.0000
  C   C228      1.0  0.30818  0.22874  0.54825  1.0000
  H   H140      1.0  0.27518  0.19143  0.48875  1.0000
  C   C229      1.0  0.05293  0.44647  0.56387  1.0000
  C   C230      1.0  0.03735  0.46301  0.54761  1.0000
  C   C231      1.0  0.01818  0.48110  0.52492  1.0000
  C   C232      1.0  0.99171  0.47518  0.46788  1.0000
  C   C233      1.0  0.97165  0.49171  0.43705  1.0000
  H   H141      1.0  0.00870  0.53972  0.54108  1.0000
  C   C234      1.0  0.12650  0.37024  0.64199  1.0000
  N   N13       1.0  0.12310  0.35154  0.55734  1.0000
  H   H142      1.0  0.35646  0.12578  0.71092  1.0000
  C   C235      1.0  0.44909  0.05499  0.54121  1.0000
  C   C236      1.0  0.46566  0.03948  0.51660  1.0000
  C   C237      1.0  0.48337  0.02036  0.49731  1.0000
  C   C238      1.0  0.51132  0.02233  0.45214  1.0000
  C   C239      1.0  0.52760  0.00252  0.45221  1.0000
  H   H143      1.0  0.45203  0.99623  0.57397  1.0000
  C   C240      1.0  0.37397  0.12934  0.63045  1.0000
  N   N14       1.0  0.37760  0.14887  0.55289  1.0000
  H   H144      1.0  0.14352  0.37277  0.72840  1.0000
  C   C241      1.0  0.72139  0.77099  0.46620  1.0000
  C   C242      1.0  0.76453  0.79176  0.49413  1.0000
  C   C243      1.0  0.80883  0.77087  0.45325  1.0000
  H   H145      1.0  0.77540  0.80784  0.51685  1.0000
  C   C244      1.0  0.22025  0.27116  0.53273  1.0000
  C   C245      1.0  0.26315  0.29226  0.50237  1.0000
  C   C246      1.0  0.30774  0.27164  0.54403  1.0000
  H   H146      1.0  0.27388  0.30841  0.47763  1.0000
  C   C247      1.0  0.10847  0.10856  0.59463  1.0000
  C   C248      1.0  0.11513  0.08587  0.64804  1.0000
  C   C249      1.0  0.09674  0.06770  0.63023  1.0000
  C   C250      1.0  0.07078  0.07175  0.55883  1.0000
  C   C251      1.0  0.06400  0.09465  0.50646  1.0000
  C   C252      1.0  0.08249  0.11261  0.52396  1.0000
  C   C253      1.0  0.05186  0.05359  0.53870  1.0000
  C   C254      1.0  0.03421  0.03879  0.52041  1.0000
  C   C255      1.0  0.01519  0.02053  0.50882  1.0000
  C   C256      1.0  0.98776  0.02315  0.45233  1.0000
  C   C257      1.0  0.97126  0.00353  0.44570  1.0000
  H   H147      1.0  0.13501  0.08254  0.70421  1.0000
  H   H148      1.0  0.10198  0.05023  0.67202  1.0000
  H   H149      1.0  0.04412  0.09782  0.45026  1.0000
  H   H150      1.0  0.07754  0.13015  0.48228  1.0000
  H   H151      1.0  0.04456  0.99619  0.60889  1.0000
  C   C258      1.0  0.12824  0.12727  0.61022  1.0000
  N   N15       1.0  0.12313  0.14763  0.54801  1.0000
  H   H152      1.0  0.36178  0.37027  0.73336  1.0000
  H   H153      1.0  0.14738  0.12283  0.67452  1.0000
  C   C259      1.0  0.44787  0.44572  0.52994  1.0000
  C   C260      1.0  0.46477  0.46105  0.50651  1.0000
  C   C261      1.0  0.48329  0.47973  0.49158  1.0000
  C   C262      1.0  0.50804  0.47898  0.40038  1.0000
  C   C263      1.0  0.52439  0.49867  0.39529  1.0000
  H   H154      1.0  0.45773  0.50148  0.64073  1.0000
  C   C264      1.0  0.37512  0.36965  0.62525  1.0000
  N   N16       1.0  0.37532  0.35250  0.52393  1.0000
  C   C265      1.0  0.82231  0.74945  0.44345  1.0000
  C   C266      1.0  0.73606  0.74940  0.46490  1.0000
  H   H155      1.0  0.84425  0.74955  0.42366  1.0000
  C   C267      1.0  0.67914  0.74940  0.43817  1.0000
  C   C268      1.0  0.76534  0.74941  0.46641  1.0000
  H   H156      1.0  0.65718  0.74946  0.41776  1.0000
  O   O13       1.0  0.94570  0.48390  0.40063  1.0000
  C   C269      1.0  0.93364  0.49181  0.24706  1.0000
  H   H157      1.0  0.94092  0.48089  0.14639  1.0000
  H   H158      1.0  0.93841  0.51010  0.22093  1.0000
  H   H159      1.0  0.91149  0.48977  0.26067  1.0000
  O   O14       1.0  0.51732  0.46076  0.30824  1.0000
  C   C270      1.0  0.51240  0.43725  0.36201  1.0000
  H   H160      1.0  0.52756  0.42667  0.29817  1.0000
  H   H161      1.0  0.49175  0.43161  0.32863  1.0000
  H   H162      1.0  0.51553  0.43547  0.49504  1.0000
  O   O15       1.0  0.52460  0.04274  0.41660  1.0000
  C   C271      1.0  0.51010  0.06029  0.32317  1.0000
  H   H163      1.0  0.52590  0.07023  0.25855  1.0000
  H   H164      1.0  0.49846  0.07178  0.40336  1.0000
  H   H165      1.0  0.49615  0.05247  0.23370  1.0000
  O   O16       1.0  0.97519  0.04365  0.40828  1.0000
  C   C272      1.0  0.99090  0.06209  0.33344  1.0000
  H   H166      1.0  0.97644  0.07172  0.25509  1.0000
  H   H167      1.0  0.00756  0.05529  0.25843  1.0000
  H   H168      1.0  0.99942  0.07362  0.42701  1.0000
  C   C273      1.0  0.56782  0.59980  0.49129  1.0000
  C   C274      1.0  0.56978  0.57727  0.43020  1.0000
  C  Sn1       1.0  0.59357  0.57001  0.35177  1.0000
  C  Sn2       1.0  0.61577  0.58564  0.33440  1.0000
  C   C275      1.0  0.61362  0.60815  0.39604  1.0000
  C   C276      1.0  0.58972  0.61523  0.47427  1.0000
  H   H169      1.0  0.54934  0.60528  0.55190  1.0000
  O  Te1       1.0  0.59518  0.54744  0.29139  1.0000
  O  Te2       1.0  0.63979  0.57884  0.25658  1.0000
  H   H170      1.0  0.58822  0.63267  0.52165  1.0000
  Mg  Mg1       1.0  0.63217  0.54630  0.19471  1.0000
  C   C277      1.0  0.89690  0.92812  0.30797  1.0000
  C   C278      1.0  0.92010  0.92984  0.40771  1.0000
  C  Sn3       1.0  0.93002  0.91032  0.49257  1.0000
  C  Sn4       1.0  0.91642  0.88869  0.47703  1.0000
  C   C279      1.0  0.89323  0.88715  0.37685  1.0000
  C   C280      1.0  0.88348  0.90680  0.29251  1.0000
  H   H171      1.0  0.88936  0.94332  0.24264  1.0000
  O  Te3       1.0  0.95323  0.91235  0.59175  1.0000
  O  Te4       1.0  0.92590  0.86890  0.56043  1.0000
  H   H172      1.0  0.86552  0.90546  0.21522  1.0000
  Mg  Mg2       1.0  0.95830  0.88044  0.68081  1.0000
  C   C281      1.0  0.32855  0.17103  0.66661  1.0000
  C   C282      1.0  0.35204  0.16636  0.57597  1.0000
  C  Sn5       1.0  0.36340  0.18355  0.47488  1.0000
  C  Sn6       1.0  0.35097  0.20581  0.46463  1.0000
  C   C283      1.0  0.32749  0.21031  0.55590  1.0000
  C   C284      1.0  0.31629  0.19298  0.65663  1.0000
  H   H173      1.0  0.31989  0.15762  0.74463  1.0000
  O  Te5       1.0  0.38687  0.17859  0.38511  1.0000
  O  Te6       1.0  0.36191  0.22331  0.36461  1.0000
  H   H174      1.0  0.29811  0.19661  0.72688  1.0000
  Mg  Mg3       1.0  0.39411  0.20814  0.26599  1.0000
  C   C285      1.0  0.82771  0.82891  0.33693  1.0000
  C   C286      1.0  0.85142  0.83378  0.42633  1.0000
  C  Sn7       1.0  0.86349  0.81663  0.52571  1.0000
  C  Sn8       1.0  0.85156  0.79420  0.53549  1.0000
  C   C287      1.0  0.82786  0.78950  0.44548  1.0000
  C   C288      1.0  0.81594  0.80679  0.34645  1.0000
  H   H175      1.0  0.81850  0.84228  0.26023  1.0000
  O  Te7       1.0  0.88716  0.82180  0.61426  1.0000
  O  Te8       1.0  0.86321  0.77674  0.63382  1.0000
  H   H176      1.0  0.79760  0.80300  0.27717  1.0000
  Mg  Mg4       1.0  0.89543  0.79222  0.73123  1.0000
  C   C289      1.0  0.64495  0.79527  0.55720  1.0000
  C   C290      1.0  0.66841  0.79108  0.46508  1.0000
  C  Sn9       1.0  0.67967  0.80875  0.36784  1.0000
  C  Sn10      1.0  0.66718  0.83101  0.36304  1.0000
  C   C291      1.0  0.64373  0.83503  0.45574  1.0000
  C   C292      1.0  0.63262  0.81722  0.55258  1.0000
  H   H177      1.0  0.63636  0.78149  0.63220  1.0000
  O  Te9       1.0  0.70311  0.80427  0.27652  1.0000
  O  Te10      1.0  0.67802  0.84899  0.26695  1.0000
  H   H178      1.0  0.61447  0.82047  0.62398  1.0000
  Mg  Mg5       1.0  0.71021  0.83437  0.16423  1.0000
  C   C293      1.0  0.93261  0.89937  0.01947  1.0000
  C   C294      1.0  0.93299  0.91990  0.94783  1.0000
  C  Sn11      1.0  0.91103  0.92678  0.84828  1.0000
  C  Sn12      1.0  0.88920  0.91111  0.82020  1.0000
  C   C295      1.0  0.88988  0.88896  0.89253  1.0000
  C   C296      1.0  0.91196  0.88226  0.99189  1.0000
  H   H179      1.0  0.94968  0.89419  0.09643  1.0000
  O  Te11      1.0  0.91086  0.94901  0.77761  1.0000
  O  Te12      1.0  0.86700  0.91754  0.72128  1.0000
  H   H180      1.0  0.91145  0.86674  0.04743  1.0000
  Mg  Mg6       1.0  0.87610  0.94970  0.65216  1.0000
  C   C297      1.0  0.17298  0.16937  0.65725  1.0000
  C   C298      1.0  0.14725  0.16594  0.58669  1.0000
  C  Sn13      1.0  0.13536  0.18329  0.48827  1.0000
  C  Sn14      1.0  0.14954  0.20444  0.46016  1.0000
  C   C299      1.0  0.17529  0.20769  0.53121  1.0000
  C   C300      1.0  0.18699  0.19022  0.62954  1.0000
  H   H181      1.0  0.18205  0.15585  0.73325  1.0000
  O  Te13      1.0  0.10963  0.17958  0.41877  1.0000
  O  Te14      1.0  0.13814  0.22206  0.36226  1.0000
  H   H182      1.0  0.20692  0.19287  0.68406  1.0000
  Mg  Mg7       1.0  0.10259  0.20881  0.29455  1.0000
  C   C301      1.0  0.86540  0.69266  0.04068  1.0000
  C   C302      1.0  0.86070  0.66948  0.97033  1.0000
  C  Sn15      1.0  0.83703  0.66639  0.87660  1.0000
  C  Sn16      1.0  0.81866  0.68523  0.85304  1.0000
  C   C303      1.0  0.82444  0.70671  0.92384  1.0000
  C   C304      1.0  0.84729  0.71126  0.01745  1.0000
  H   H183      1.0  0.88377  0.69491  0.11304  1.0000
  O  Te15      1.0  0.83176  0.64476  0.80724  1.0000
  O  Te16      1.0  0.79486  0.68262  0.75987  1.0000
  H   H184      1.0  0.85162  0.72794  0.07182  1.0000
  Mg  Mg8       1.0  0.79663  0.64979  0.69039  1.0000
  C   C305      1.0  0.38757  0.41857  0.17569  1.0000
  C   C306      1.0  0.38924  0.39631  0.10970  1.0000
  C  Sn17      1.0  0.41248  0.38952  0.02374  1.0000
  C  Sn18      1.0  0.43443  0.40535  0.00370  1.0000
  C   C307      1.0  0.43257  0.42758  0.07029  1.0000
  C   C308      1.0  0.40921  0.43420  0.15604  1.0000
  H   H185      1.0  0.36950  0.42369  0.24212  1.0000
  O  Te17      1.0  0.41470  0.36555  0.95855  1.0000
  O  Te18      1.0  0.45879  0.39736  0.91839  1.0000
  H   H186      1.0  0.40793  0.45144  0.20721  1.0000
  Mg  Mg9       1.0  0.45096  0.36503  0.85213  1.0000
  C   C309      1.0  0.31800  0.31931  0.64522  1.0000
  C   C310      1.0  0.32144  0.29838  0.56241  1.0000
  C  Sn19      1.0  0.34462  0.29474  0.46672  1.0000
  C  Sn20      1.0  0.36470  0.31242  0.45398  1.0000
  C   C311      1.0  0.36107  0.33329  0.53740  1.0000
  C   C312      1.0  0.33780  0.33675  0.63277  1.0000
  H   H187      1.0  0.30000  0.32199  0.71909  1.0000
  O  Te19      1.0  0.34773  0.27373  0.38474  1.0000
  O  Te20      1.0  0.38806  0.30924  0.35923  1.0000
  H   H188      1.0  0.33515  0.35295  0.69697  1.0000
  Mg  Mg10      1.0  0.38308  0.27761  0.27061  1.0000
  C   C313      1.0  0.68170  0.82037  0.84805  1.0000
  C   C314      1.0  0.67824  0.79917  0.93075  1.0000
  C  Sn21      1.0  0.65416  0.79691  0.02623  1.0000
  C  Sn22      1.0  0.63408  0.81459  0.03888  1.0000
  C   C315      1.0  0.63860  0.83408  0.95556  1.0000
  C   C316      1.0  0.66190  0.83781  0.86040  1.0000
  H   H189      1.0  0.69972  0.82326  0.77434  1.0000
  O  Te21      1.0  0.65103  0.77563  0.10811  1.0000
  O  Te22      1.0  0.61069  0.81114  0.13341  1.0000
  H   H190      1.0  0.66457  0.85422  0.79629  1.0000
  Mg  Mg11      1.0  0.61565  0.77920  0.22195  1.0000
  C   C317      1.0  0.10248  0.42787  0.68909  1.0000
  C   C318      1.0  0.07825  0.42917  0.59801  1.0000
  C  Sn23      1.0  0.06769  0.40934  0.52346  1.0000
  C  Sn24      1.0  0.08168  0.38784  0.54066  1.0000
  C   C319      1.0  0.10590  0.38672  0.63213  1.0000
  C   C320      1.0  0.11629  0.40667  0.70617  1.0000
  H   H191      1.0  0.11052  0.44330  0.74645  1.0000
  O  Te23      1.0  0.04346  0.41095  0.43284  1.0000
  O  Te24      1.0  0.07157  0.36775  0.46749  1.0000
  H   H192      1.0  0.13505  0.40565  0.77677  1.0000
  Mg  Mg12      1.0  0.03783  0.37875  0.35621  1.0000
  C   C321      1.0  0.17294  0.33045  0.16526  1.0000
  C   C322      1.0  0.14896  0.33578  0.07890  1.0000
  C  Sn25      1.0  0.13692  0.31720  0.98463  1.0000
  C  Sn26      1.0  0.14825  0.29453  0.97695  1.0000
  C   C323      1.0  0.17135  0.29103  0.06389  1.0000
  C   C324      1.0  0.18413  0.30810  0.15781  1.0000
  H   H193      1.0  0.18282  0.34365  0.23800  1.0000
  O  Te25      1.0  0.11298  0.32282  0.89906  1.0000
  O  Te26      1.0  0.13574  0.27729  0.88372  1.0000
  H   H194      1.0  0.20269  0.30396  0.22475  1.0000
  Mg  Mg13      1.0  0.10347  0.29339  0.78883  1.0000
  C   C325      1.0  0.08089  0.10596  0.97861  1.0000
  C   C326      1.0  0.10247  0.11050  0.08292  1.0000
  C  Sn27      1.0  0.11174  0.09201  0.18110  1.0000
  C  Sn28      1.0  0.09823  0.07024  0.17441  1.0000
  C   C327      1.0  0.07578  0.06752  0.06956  1.0000
  C   C328      1.0  0.06756  0.08449  0.97189  1.0000
  H   H195      1.0  0.07385  0.12037  0.90297  1.0000
  O  Te27      1.0  0.13420  0.09519  0.28468  1.0000
  O  Te28      1.0  0.10707  0.05146  0.27116  1.0000
  H   H196      1.0  0.05018  0.08225  0.89106  1.0000
  Mg  Mg14      1.0  0.13858  0.06439  0.39282  1.0000
  C   C329      1.0  0.39160  0.41625  0.69547  1.0000
  C   C330      1.0  0.39133  0.39462  0.61918  1.0000
  C  Sn29      1.0  0.41196  0.38868  0.50942  1.0000
  C  Sn30      1.0  0.43323  0.40472  0.47570  1.0000
  C   C331      1.0  0.43333  0.42631  0.55275  1.0000
  C   C332      1.0  0.41258  0.43208  0.66234  1.0000
  H   H197      1.0  0.37555  0.42071  0.78033  1.0000
  O  Te29      1.0  0.41137  0.36700  0.43421  1.0000
  O  Te30      1.0  0.45411  0.39923  0.36656  1.0000
  H   H198      1.0  0.41281  0.44883  0.72147  1.0000
  Mg  Mg15      1.0  0.44437  0.36753  0.29465  1.0000
  C   C333      1.0  0.39944  0.07187  0.67129  1.0000
  C   C334      1.0  0.42346  0.07159  0.57951  1.0000
  C  Sn31      1.0  0.43330  0.09205  0.50731  1.0000
  C  Sn32      1.0  0.41877  0.11317  0.52763  1.0000
  C   C335      1.0  0.39477  0.11327  0.61978  1.0000
  C   C336      1.0  0.38510  0.09269  0.69145  1.0000
  H   H199      1.0  0.39196  0.05596  0.72682  1.0000
  O  Te31      1.0  0.45734  0.09146  0.41595  1.0000
  O  Te32      1.0  0.42815  0.13387  0.45686  1.0000
  H   H200      1.0  0.36651  0.09292  0.76259  1.0000
  Mg  Mg16      1.0  0.46190  0.12420  0.34341  1.0000
