data_image0
_chemical_formula_structural       C3HC6H4CNHC3HCNHC9H5C6H4CNHC9H5CNHC9H5CNHC9H5CNHC9H5C6H4CNHC3HCNHC2HC2HC2HC2HC9H5CNHC3HCNHC9H5C6H4CNHC3HCNHC3HCNHC3HCNHC9H5CNHC3HCNHC2HC2HC2HC2HC2Sn2C2HTe2HMgC2Sn2C2HTe2HMgC2Sn2C2HTe2HMgC2Sn2C2HTe2HMgC2Sn2C2HTe2HMgC2Sn2C2HTe2HMgC2Sn2C2HTe2HMgC2Sn2C2HTe2HMgC2Sn2C2HTe2HMgC2Sn2C2HTe2HMgC2Sn2C2HTe2HMgC2Sn2C2HTe2HMg
_chemical_formula_sum              "C200 H112 N16 Sn24 Te24 Mg12"
_cell_length_a       31.8451
_cell_length_b       36.193
_cell_length_c       8.12167
_cell_angle_alpha    90.5219
_cell_angle_beta     90.1528
_cell_angle_gamma    89.9837

_symmetry_space_group_name_H-M    'P1'
_space_group_IT_number       1

loop_
  _space_group_symop_operation_xyz
  'x, y, z'

loop_
  _atom_site_type_symbol
  _atom_site_label
  _atom_site_symmetry_multiplicity
  _atom_site_fract_x
  _atom_site_fract_y
  _atom_site_fract_z
  _atom_site_occupancy
  C   C1        1.0  0.54737  0.53502  0.89354  1.0000
  C   C2        1.0  0.48122  0.56850  0.86471  1.0000
  C   C3        1.0  0.41267  0.53562  0.90204  1.0000
  H   H1        1.0  0.46473  0.59425  0.84259  1.0000
  C   C4        1.0  0.22160  0.78037  0.01734  1.0000
  C   C5        1.0  0.21280  0.74729  0.93083  1.0000
  C   C6        1.0  0.23997  0.71736  0.93855  1.0000
  C   C7        1.0  0.27713  0.71964  0.03272  1.0000
  C   C8        1.0  0.28574  0.75259  0.12075  1.0000
  C   C9        1.0  0.25854  0.78251  0.11290  1.0000
  H   H2        1.0  0.18437  0.74546  0.85642  1.0000
  H   H3        1.0  0.23356  0.69192  0.87084  1.0000
  H   H4        1.0  0.31417  0.75444  0.19525  1.0000
  H   H5        1.0  0.26497  0.80803  0.17992  1.0000
  C   C10       1.0  0.19283  0.81162  0.00461  1.0000
  N   N1        1.0  0.19502  0.83935  0.10594  1.0000
  H   H6        1.0  0.84032  0.19821  0.96272  1.0000
  C   C11       1.0  0.95540  0.03552  0.11830  1.0000
  C   C12       1.0  0.02148  0.06917  0.14464  1.0000
  C   C13       1.0  0.09005  0.03640  0.10237  1.0000
  H   H7        1.0  0.03800  0.09497  0.16670  1.0000
  C   C14       1.0  0.30841  0.31376  0.02512  1.0000
  N   N2        1.0  0.30503  0.34076  0.92231  1.0000
  H   H8        1.0  0.67180  0.69250  0.11628  1.0000
  C   C15       1.0  0.45683  0.46685  0.88330  1.0000
  C   C16       1.0  0.52309  0.43328  0.86520  1.0000
  C   C17       1.0  0.59106  0.46626  0.91161  1.0000
  C   C18       1.0  0.61645  0.43229  0.92227  1.0000
  C   C19       1.0  0.65550  0.43062  0.84157  1.0000
  C   C20       1.0  0.68098  0.39965  0.85351  1.0000
  C   C21       1.0  0.66857  0.36888  0.94626  1.0000
  C   C22       1.0  0.62958  0.37042  0.02819  1.0000
  C   C23       1.0  0.60425  0.40156  0.01644  1.0000
  H   H9        1.0  0.53987  0.40744  0.84716  1.0000
  H   H10       1.0  0.66519  0.45359  0.76502  1.0000
  H   H11       1.0  0.71087  0.39804  0.78936  1.0000
  H   H12       1.0  0.61975  0.34791  0.10713  1.0000
  H   H13       1.0  0.57534  0.40304  0.08722  1.0000
  C   C24       1.0  0.77871  0.22081  0.01717  1.0000
  C   C25       1.0  0.78982  0.25607  0.95889  1.0000
  C   C26       1.0  0.76109  0.28484  0.96105  1.0000
  C   C27       1.0  0.72018  0.27911  0.02152  1.0000
  C   C28       1.0  0.70902  0.24384  0.07951  1.0000
  C   C29       1.0  0.73774  0.21504  0.07691  1.0000
  H   H14       1.0  0.82142  0.26050  0.91192  1.0000
  H   H15       1.0  0.76906  0.31214  0.91582  1.0000
  H   H16       1.0  0.67740  0.23942  0.12633  1.0000
  H   H17       1.0  0.72974  0.18772  0.12184  1.0000
  C   C30       1.0  0.80980  0.19141  0.01791  1.0000
  N   N3        1.0  0.80164  0.15977  0.08347  1.0000
  H   H18       1.0  0.17014  0.81015  0.90240  1.0000
  C   C31       1.0  0.04605  0.96750  0.11654  1.0000
  C   C32       1.0  0.97986  0.93399  0.14178  1.0000
  C   C33       1.0  0.91157  0.96685  0.10006  1.0000
  C   C34       1.0  0.88622  0.93280  0.09101  1.0000
  C   C35       1.0  0.84756  0.93114  0.17446  1.0000
  C   C36       1.0  0.82254  0.89976  0.16568  1.0000
  C   C37       1.0  0.83506  0.86859  0.07335  1.0000
  C   C38       1.0  0.87368  0.87009  0.98903  1.0000
  C   C39       1.0  0.89847  0.90161  0.99739  1.0000
  H   H19       1.0  0.96321  0.90829  0.16334  1.0000
  H   H20       1.0  0.83799  0.95427  0.25217  1.0000
  H   H21       1.0  0.79315  0.89806  0.23322  1.0000
  H   H22       1.0  0.88395  0.84693  0.91299  1.0000
  H   H23       1.0  0.92727  0.90287  0.92600  1.0000
  C   C40       1.0  0.69767  0.68835  0.02860  1.0000
  N   N4        1.0  0.70164  0.65916  0.93674  1.0000
  H   H24       1.0  0.33290  0.31250  0.12050  1.0000
  C   C41       1.0  0.54666  0.46630  0.89294  1.0000
  C   C42       1.0  0.48022  0.43358  0.85919  1.0000
  C   C43       1.0  0.41229  0.46735  0.89667  1.0000
  C   C44       1.0  0.38630  0.43362  0.90343  1.0000
  C   C45       1.0  0.34709  0.43248  0.82265  1.0000
  C   C46       1.0  0.32126  0.40162  0.83198  1.0000
  C   C47       1.0  0.33342  0.37037  0.92243  1.0000
  C   C48       1.0  0.37284  0.37114  0.00194  1.0000
  C   C49       1.0  0.39837  0.40220  0.99345  1.0000
  H   H25       1.0  0.46334  0.40806  0.83439  1.0000
  H   H26       1.0  0.33755  0.45570  0.74703  1.0000
  H   H27       1.0  0.29134  0.40065  0.76717  1.0000
  H   H28       1.0  0.38323  0.34766  0.07411  1.0000
  H   H29       1.0  0.42766  0.40281  0.06245  1.0000
  C   C50       1.0  0.19445  0.19097  0.99539  1.0000
  N   N5        1.0  0.19626  0.16415  0.09948  1.0000
  H   H30       1.0  0.84160  0.80439  0.91312  1.0000
  C   C51       1.0  0.95609  0.96691  0.11600  1.0000
  C   C52       1.0  0.02278  0.93430  0.14202  1.0000
  C   C53       1.0  0.09055  0.96806  0.10083  1.0000
  C   C54       1.0  0.11649  0.93421  0.09544  1.0000
  C   C55       1.0  0.15499  0.93327  0.18128  1.0000
  C   C56       1.0  0.17992  0.90176  0.18123  1.0000
  C   C57       1.0  0.16777  0.86969  0.09411  1.0000
  C   C58       1.0  0.12951  0.87054  0.00630  1.0000
  C   C59       1.0  0.10471  0.90219  0.00635  1.0000
  H   H31       1.0  0.03984  0.90884  0.16417  1.0000
  H   H32       1.0  0.16459  0.95727  0.25372  1.0000
  H   H33       1.0  0.20905  0.90082  0.25120  1.0000
  H   H34       1.0  0.11936  0.84655  0.93510  1.0000
  H   H35       1.0  0.07630  0.90275  0.93175  1.0000
  C   C60       1.0  0.30675  0.68887  0.03882  1.0000
  N   N6        1.0  0.30457  0.66190  0.93337  1.0000
  H   H36       1.0  0.65928  0.30274  0.08223  1.0000
  C   C61       1.0  0.45724  0.53562  0.88766  1.0000
  C   C62       1.0  0.52416  0.56825  0.86814  1.0000
  C   C63       1.0  0.59188  0.53438  0.91063  1.0000
  C   C64       1.0  0.61841  0.56778  0.91952  1.0000
  C   C65       1.0  0.65748  0.56802  0.83835  1.0000
  C   C66       1.0  0.68390  0.59846  0.84790  1.0000
  C   C67       1.0  0.67252  0.63018  0.93890  1.0000
  C   C68       1.0  0.63345  0.63020  0.02038  1.0000
  C   C69       1.0  0.60723  0.59953  0.01141  1.0000
  H   H37       1.0  0.54126  0.59382  0.84952  1.0000
  H   H38       1.0  0.66647  0.54437  0.76272  1.0000
  H   H39       1.0  0.71370  0.59896  0.78277  1.0000
  H   H40       1.0  0.62379  0.65392  0.09428  1.0000
  H   H41       1.0  0.57822  0.59938  0.08175  1.0000
  C   C70       1.0  0.78427  0.77815  0.99875  1.0000
  C   C71       1.0  0.79435  0.74358  0.92736  1.0000
  C   C72       1.0  0.76656  0.71415  0.93692  1.0000
  C   C73       1.0  0.72788  0.71845  0.01887  1.0000
  C   C74       1.0  0.71799  0.75294  0.09101  1.0000
  C   C75       1.0  0.74548  0.78246  0.07971  1.0000
  H   H42       1.0  0.82431  0.74016  0.86462  1.0000
  H   H43       1.0  0.77370  0.68739  0.88167  1.0000
  H   H44       1.0  0.68839  0.75618  0.15651  1.0000
  H   H45       1.0  0.73832  0.80922  0.13485  1.0000
  C   C76       1.0  0.81392  0.80868  0.99148  1.0000
  N   N7        1.0  0.80731  0.83864  0.07584  1.0000
  H   H46       1.0  0.17174  0.19172  0.89320  1.0000
  C   C77       1.0  0.04548  0.03632  0.11763  1.0000
  C   C78       1.0  0.97854  0.06884  0.14496  1.0000
  C   C79       1.0  0.91087  0.03486  0.10371  1.0000
  H   H47       1.0  0.96139  0.09431  0.16794  1.0000
  C   C80       1.0  0.68932  0.30874  0.02157  1.0000
  N   N8        1.0  0.69733  0.33970  0.94973  1.0000
  H   H48       1.0  0.33036  0.69012  0.13776  1.0000
  C   C81       1.0  0.39195  0.50153  0.90862  1.0000
  C   C82       1.0  0.52454  0.50083  0.89213  1.0000
  H   H49       1.0  0.35824  0.50158  0.92943  1.0000
  C   C83       1.0  0.61204  0.50014  0.92100  1.0000
  C   C84       1.0  0.47948  0.50111  0.88831  1.0000
  H   H50       1.0  0.64576  0.49985  0.94230  1.0000
  C   C85       1.0  0.11078  0.00231  0.09189  1.0000
  C   C86       1.0  0.97829  0.00140  0.11570  1.0000
  H   H51       1.0  0.14450  0.00238  0.07148  1.0000
  C   C87       1.0  0.89051  0.00070  0.09226  1.0000
  C   C88       1.0  0.02336  0.00175  0.11569  1.0000
  H   H52       1.0  0.85673  0.00045  0.07157  1.0000
  C   C89       1.0  0.54354  0.53353  0.39860  1.0000
  C   C90       1.0  0.47727  0.56612  0.36036  1.0000
  C   C91       1.0  0.40926  0.53238  0.39210  1.0000
  C   C92       1.0  0.38345  0.56620  0.40236  1.0000
  C   C93       1.0  0.34484  0.56794  0.31782  1.0000
  C   C94       1.0  0.31919  0.59888  0.33052  1.0000
  C   C95       1.0  0.33083  0.62951  0.42857  1.0000
  C   C96       1.0  0.36957  0.62802  0.51299  1.0000
  C   C97       1.0  0.39510  0.59698  0.50013  1.0000
  H   H53       1.0  0.46038  0.59159  0.33629  1.0000
  H   H54       1.0  0.33568  0.54509  0.23752  1.0000
  H   H55       1.0  0.28980  0.60047  0.26253  1.0000
  H   H56       1.0  0.37922  0.65068  0.59339  1.0000
  H   H57       1.0  0.42393  0.59578  0.57197  1.0000
  C   C98       1.0  0.18928  0.80716  0.50248  1.0000
  N   N9        1.0  0.19438  0.83673  0.59124  1.0000
  H   H58       1.0  0.82901  0.18984  0.39558  1.0000
  C   C99       1.0  0.95503  0.03360  0.61493  1.0000
  C   C100      1.0  0.02145  0.06618  0.65196  1.0000
  C   C101      1.0  0.08934  0.03278  0.60738  1.0000
  H   H59       1.0  0.03839  0.09152  0.68004  1.0000
  C   C102      1.0  0.30425  0.31156  0.52233  1.0000
  N   N10       1.0  0.30189  0.33794  0.41620  1.0000
  H   H60       1.0  0.66679  0.69045  0.65275  1.0000
  C   C103      1.0  0.45432  0.46414  0.38017  1.0000
  C   C104      1.0  0.52137  0.43159  0.36446  1.0000
  C   C105      1.0  0.58852  0.46547  0.42120  1.0000
  C   C106      1.0  0.61463  0.43186  0.43027  1.0000
  C   C107      1.0  0.65411  0.43117  0.35230  1.0000
  C   C108      1.0  0.67952  0.40002  0.35768  1.0000
  C   C109      1.0  0.66687  0.36820  0.44262  1.0000
  C   C110      1.0  0.62753  0.36876  0.52194  1.0000
  C   C111      1.0  0.60218  0.40002  0.51605  1.0000
  H   H61       1.0  0.53869  0.40608  0.34513  1.0000
  H   H62       1.0  0.66385  0.45483  0.28005  1.0000
  H   H63       1.0  0.70933  0.39907  0.29285  1.0000
  H   H64       1.0  0.61688  0.34473  0.58955  1.0000
  H   H65       1.0  0.57259  0.40042  0.58255  1.0000
  C   C112      1.0  0.77749  0.21983  0.51090  1.0000
  C   C113      1.0  0.78457  0.25184  0.41710  1.0000
  C   C114      1.0  0.75735  0.28172  0.42630  1.0000
  C   C115      1.0  0.72203  0.28054  0.53013  1.0000
  C   C116      1.0  0.71498  0.24858  0.62425  1.0000
  C   C117      1.0  0.74217  0.21867  0.61488  1.0000
  H   H66       1.0  0.81180  0.25302  0.33669  1.0000
  H   H67       1.0  0.76249  0.30643  0.35402  1.0000
  H   H68       1.0  0.68776  0.24744  0.70477  1.0000
  H   H69       1.0  0.73698  0.19397  0.68727  1.0000
  C   C118      1.0  0.80644  0.18870  0.49781  1.0000
  N   N11       1.0  0.80470  0.16137  0.59921  1.0000
  H   H70       1.0  0.16292  0.80326  0.41634  1.0000
  C   C119      1.0  0.04462  0.96444  0.61600  1.0000
  C   C120      1.0  0.97784  0.93172  0.63712  1.0000
  C   C121      1.0  0.91017  0.96546  0.59039  1.0000
  H   H71       1.0  0.96084  0.90618  0.65763  1.0000
  C   C122      1.0  0.68999  0.68910  0.55286  1.0000
  N   N12       1.0  0.69228  0.66182  0.44910  1.0000
  H   H72       1.0  0.32787  0.31098  0.62128  1.0000
  C   C123      1.0  0.54427  0.46483  0.39617  1.0000
  C   C124      1.0  0.47847  0.43125  0.35690  1.0000
  C   C125      1.0  0.40970  0.46416  0.39106  1.0000
  H   H73       1.0  0.46221  0.40545  0.33127  1.0000
  C   C126      1.0  0.19057  0.18858  0.49898  1.0000
  N   N13       1.0  0.19441  0.16079  0.59718  1.0000
  H   H74       1.0  0.82231  0.81190  0.38609  1.0000
  C   C127      1.0  0.95459  0.96488  0.60994  1.0000
  C   C128      1.0  0.02077  0.93152  0.64017  1.0000
  C   C129      1.0  0.08917  0.96462  0.60136  1.0000
  H   H75       1.0  0.03736  0.90587  0.66332  1.0000
  C   C130      1.0  0.30649  0.68720  0.52854  1.0000
  N   N14       1.0  0.30217  0.65885  0.43159  1.0000
  H   H76       1.0  0.67146  0.31169  0.64689  1.0000
  C   C131      1.0  0.45382  0.53288  0.38153  1.0000
  C   C132      1.0  0.52013  0.56644  0.36842  1.0000
  C   C133      1.0  0.58771  0.53363  0.42450  1.0000
  C   C134      1.0  0.61302  0.56773  0.43603  1.0000
  C   C135      1.0  0.65235  0.56883  0.35741  1.0000
  C   C136      1.0  0.67746  0.60014  0.36524  1.0000
  C   C137      1.0  0.66461  0.63181  0.45337  1.0000
  C   C138      1.0  0.62519  0.63104  0.53223  1.0000
  C   C139      1.0  0.60018  0.59955  0.52397  1.0000
  H   H77       1.0  0.53704  0.59215  0.35067  1.0000
  H   H78       1.0  0.66237  0.54517  0.28399  1.0000
  H   H79       1.0  0.70723  0.60129  0.30012  1.0000
  H   H80       1.0  0.61426  0.65498  0.60189  1.0000
  H   H81       1.0  0.57055  0.59903  0.59014  1.0000
  C   C140      1.0  0.80225  0.81231  0.49635  1.0000
  N   N15       1.0  0.80281  0.83902  0.60311  1.0000
  H   H82       1.0  0.16559  0.19062  0.40584  1.0000
  C   C141      1.0  0.04485  0.03313  0.62225  1.0000
  C   C142      1.0  0.97856  0.06641  0.64821  1.0000
  C   C143      1.0  0.91066  0.03368  0.59359  1.0000
  H   H83       1.0  0.96171  0.09197  0.67246  1.0000
  C   C144      1.0  0.69324  0.31179  0.54199  1.0000
  N   N16       1.0  0.69448  0.33814  0.43565  1.0000
  H   H84       1.0  0.33252  0.69045  0.61669  1.0000
  C   C145      1.0  0.38886  0.49822  0.39885  1.0000
  C   C146      1.0  0.52146  0.49899  0.39394  1.0000
  H   H85       1.0  0.35504  0.49818  0.41663  1.0000
  C   C147      1.0  0.60852  0.49972  0.43792  1.0000
  C   C148      1.0  0.47648  0.49865  0.38534  1.0000
  H   H86       1.0  0.64192  0.50006  0.46616  1.0000
  C   C149      1.0  0.10985  0.99871  0.59499  1.0000
  C   C150      1.0  0.97727  0.99911  0.61239  1.0000
  H   H87       1.0  0.14359  0.99875  0.57489  1.0000
  C   C151      1.0  0.89000  0.99969  0.57831  1.0000
  C   C152      1.0  0.02230  0.99888  0.61592  1.0000
  H   H88       1.0  0.85644  0.99987  0.55338  1.0000
  C   C153      1.0  0.83701  0.07441  0.20132  1.0000
  C   C154      1.0  0.87397  0.06696  0.11476  1.0000
  C  Sn1       1.0  0.89098  0.09346  0.01020  1.0000
  C  Sn2       1.0  0.87122  0.13008  0.99226  1.0000
  C   C155      1.0  0.83360  0.13523  0.07948  1.0000
  C   C156      1.0  0.81684  0.10851  0.18374  1.0000
  H   H89       1.0  0.82406  0.05374  0.28206  1.0000
  O  Te1       1.0  0.92860  0.08760  0.92459  1.0000
  O  Te2       1.0  0.88755  0.15706  0.88863  1.0000
  H   H90       1.0  0.78824  0.11429  0.25082  1.0000
  Mg  Mg1       1.0  0.93861  0.13328  0.79806  1.0000
  C   C157      1.0  0.83445  0.92840  0.67900  1.0000
  C   C158      1.0  0.87475  0.93234  0.61387  1.0000
  C  Sn3       1.0  0.89305  0.90348  0.52398  1.0000
  C  Sn4       1.0  0.87050  0.87009  0.49900  1.0000
  C   C159      1.0  0.83018  0.86643  0.56456  1.0000
  C   C160      1.0  0.81217  0.89548  0.65436  1.0000
  H   H91       1.0  0.82050  0.95089  0.74840  1.0000
  O  Te3       1.0  0.93336  0.90788  0.45983  1.0000
  O  Te4       1.0  0.88803  0.84080  0.40959  1.0000
  H   H92       1.0  0.78095  0.89243  0.70467  1.0000
  Mg  Mg2       1.0  0.94387  0.86006  0.34669  1.0000
  C   C161      1.0  0.16362  0.92500  0.68930  1.0000
  C   C162      1.0  0.12592  0.93214  0.60704  1.0000
  C  Sn5       1.0  0.10678  0.90457  0.51158  1.0000
  C  Sn6       1.0  0.12581  0.86922  0.49851  1.0000
  C   C163      1.0  0.16350  0.86234  0.58138  1.0000
  C   C164      1.0  0.18239  0.89013  0.67652  1.0000
  H   H93       1.0  0.17823  0.94649  0.76299  1.0000
  O  Te5       1.0  0.06913  0.91218  0.43016  1.0000
  O  Te6       1.0  0.10734  0.84116  0.40398  1.0000
  H   H94       1.0  0.21156  0.88458  0.74028  1.0000
  Mg  Mg3       1.0  0.05607  0.86494  0.31614  1.0000
  C   C165      1.0  0.33642  0.57407  0.82856  1.0000
  C   C166      1.0  0.37758  0.56958  0.88498  1.0000
  C  Sn7       1.0  0.39683  0.59733  0.97903  1.0000
  C  Sn8       1.0  0.37369  0.62812  0.01714  1.0000
  C   C167      1.0  0.33319  0.63438  0.96021  1.0000
  C   C168      1.0  0.31424  0.60644  0.86615  1.0000
  H   H95       1.0  0.32174  0.55245  0.75585  1.0000
  O  Te7       1.0  0.43731  0.59035  0.03436  1.0000
  O  Te8       1.0  0.39217  0.65629  0.11096  1.0000
  H   H96       1.0  0.28235  0.60992  0.82257  1.0000
  Mg  Mg4       1.0  0.44893  0.63665  0.15815  1.0000
  C   C169      1.0  0.83587  0.07266  0.68421  1.0000
  C   C170      1.0  0.87386  0.06621  0.60310  1.0000
  C  Sn9       1.0  0.89301  0.09440  0.51408  1.0000
  C  Sn10      1.0  0.87370  0.12968  0.50638  1.0000
  C   C171      1.0  0.83572  0.13587  0.58805  1.0000
  C   C172      1.0  0.81682  0.10746  0.67673  1.0000
  H   H97       1.0  0.82126  0.05069  0.75290  1.0000
  O  Te9       1.0  0.93095  0.08748  0.43371  1.0000
  O  Te10      1.0  0.89217  0.15836  0.41833  1.0000
  H   H98       1.0  0.78742  0.11247  0.73961  1.0000
  Mg  Mg5       1.0  0.94390  0.13539  0.32942  1.0000
  C   C173      1.0  0.77921  0.73817  0.41581  1.0000
  C   C174      1.0  0.77529  0.77374  0.48238  1.0000
  C  Sn11      1.0  0.74269  0.78202  0.59145  1.0000
  C  Sn12      1.0  0.71354  0.75411  0.63448  1.0000
  C   C175      1.0  0.71775  0.71861  0.56731  1.0000
  C   C176      1.0  0.75048  0.71062  0.45824  1.0000
  H   H99       1.0  0.80454  0.73198  0.33149  1.0000
  O  Te11      1.0  0.73923  0.81771  0.65677  1.0000
  O  Te12      1.0  0.68067  0.76164  0.74325  1.0000
  H   H100      1.0  0.75352  0.68307  0.40681  1.0000
  Mg  Mg6       1.0  0.68911  0.81445  0.79981  1.0000
  C   C177      1.0  0.38043  0.37222  0.50546  1.0000
  C   C178      1.0  0.34022  0.36668  0.44041  1.0000
  C  Sn13      1.0  0.32135  0.39388  0.34423  1.0000
  C  Sn14      1.0  0.34322  0.42722  0.31277  1.0000
  C   C179      1.0  0.38344  0.43249  0.37832  1.0000
  C   C180      1.0  0.40202  0.40509  0.47444  1.0000
  H   H101      1.0  0.39481  0.35101  0.57976  1.0000
  O  Te13      1.0  0.28116  0.38790  0.28024  1.0000
  O  Te14      1.0  0.32511  0.45487  0.21700  1.0000
  H   H102      1.0  0.43316  0.40938  0.52470  1.0000
  Mg  Mg7       1.0  0.26970  0.43381  0.15704  1.0000
  C   C181      1.0  0.28155  0.23858  0.61851  1.0000
  C   C182      1.0  0.27922  0.27201  0.53421  1.0000
  C  Sn15      1.0  0.24438  0.27992  0.43574  1.0000
  C  Sn16      1.0  0.21129  0.25383  0.42169  1.0000
  C   C183      1.0  0.21390  0.22047  0.50662  1.0000
  C   C184      1.0  0.24892  0.21284  0.60477  1.0000
  H   H103      1.0  0.30863  0.23268  0.69452  1.0000
  O  Te15      1.0  0.24257  0.31345  0.35232  1.0000
  O  Te16      1.0  0.17610  0.26103  0.32417  1.0000
  H   H104      1.0  0.25070  0.18696  0.67010  1.0000
  Mg  Mg8       1.0  0.18811  0.31059  0.23445  1.0000
  C   C185      1.0  0.26680  0.77630  0.61874  1.0000
  C   C186      1.0  0.22984  0.77918  0.52659  1.0000
  C  Sn17      1.0  0.21494  0.74887  0.43615  1.0000
  C  Sn18      1.0  0.23752  0.71508  0.43829  1.0000
  C   C187      1.0  0.27445  0.71247  0.53096  1.0000
  C   C188      1.0  0.28909  0.74297  0.62096  1.0000
  H   H105      1.0  0.27812  0.79989  0.68845  1.0000
  O  Te17      1.0  0.17797  0.75223  0.34470  1.0000
  O  Te18      1.0  0.22333  0.68434  0.34908  1.0000
  H   H106      1.0  0.31769  0.74072  0.69238  1.0000
  Mg  Mg9       1.0  0.17132  0.70259  0.24326  1.0000
  C   C189      1.0  0.16400  0.07260  0.69563  1.0000
  C   C190      1.0  0.12385  0.06680  0.63053  1.0000
  C  Sn19      1.0  0.10482  0.09383  0.53388  1.0000
  C  Sn20      1.0  0.12647  0.12726  0.50199  1.0000
  C   C191      1.0  0.16663  0.13279  0.56760  1.0000
  C   C192      1.0  0.18538  0.10556  0.66419  1.0000
  H   H107      1.0  0.17852  0.05152  0.77030  1.0000
  O  Te19      1.0  0.06468  0.08759  0.46984  1.0000
  O  Te20      1.0  0.10818  0.15474  0.40575  1.0000
  H   H108      1.0  0.21648  0.11005  0.71449  1.0000
  Mg  Mg10      1.0  0.05293  0.13335  0.34592  1.0000
  C   C193      1.0  0.27131  0.22385  0.11255  1.0000
  C   C194      1.0  0.23191  0.22144  0.03698  1.0000
  C  Sn21      1.0  0.21739  0.25279  0.94319  1.0000
  C  Sn22      1.0  0.24217  0.28507  0.92489  1.0000
  C   C195      1.0  0.28087  0.28515  0.00089  1.0000
  C   C196      1.0  0.29577  0.25566  0.09451  1.0000
  H   H109      1.0  0.28285  0.20103  0.18491  1.0000
  O  Te21      1.0  0.17796  0.24994  0.86858  1.0000
  O  Te22      1.0  0.22775  0.31476  0.83178  1.0000
  H   H110      1.0  0.32628  0.25753  0.15291  1.0000
  Mg  Mg11      1.0  0.17197  0.29774  0.75404  1.0000
  C   C197      1.0  0.17846  0.09288  0.19326  1.0000
  C   C198      1.0  0.17324  0.12554  0.10499  1.0000
  C  Sn23      1.0  0.13670  0.13138  0.01328  1.0000
  C  Sn24      1.0  0.10484  0.10399  0.01014  1.0000
  C   C199      1.0  0.11035  0.07143  0.09896  1.0000
  C   C200      1.0  0.14705  0.06585  0.19028  1.0000
  H   H111      1.0  0.20684  0.08858  0.26400  1.0000
  O  Te23      1.0  0.13268  0.16620  0.92576  1.0000
  O  Te24      1.0  0.06868  0.11117  0.91954  1.0000
  H   H112      1.0  0.15107  0.04058  0.25870  1.0000
  Mg  Mg12      1.0  0.07686  0.16042  0.82048  1.0000
