data_image0
_chemical_formula_structural       C3HC3HC3N2CH2C3HC3HC3N2CH2C3HC3HC3N2CH2C3HC3HC3N2CH2C2HC2HC2HC2HC3HC3HC3N2CH2C3HC3HC3N2CH2C3HC3HC3N2CH2C3HC3HC3N2CH2C2HC2HC2HC2HC2Sn2C2HTe2HMgC2Sn2C2HTe2HMgC2Sn2C2HTe2HMgC2Sn2C2HTe2HMgC2Sn2C2HTe2HMgC2Sn2C2HTe2HMgC2Sn2C2HTe2HMgC2Sn2C2HTe2HMgC2Sn2C2HTe2HMgC2Sn2C2HTe2HMgC2Sn2C2HTe2HMgC2Sn2C2HTe2HMgC2Sn2C2HTe2HMgC2Sn2C2HTe2HMgC2Sn2C2HTe2HMgC2Sn2C2HTe2HMgC2Sn2C2HTe2HMgC2Sn2C2HTe2HMgC2Sn2C2HTe2HMgC2Sn2C2HTe2HMgC2Sn2C2HTe2HMgC2Sn2C2HTe2HMgC2Sn2C2HTe2HMgC2Sn2C2HTe2HMgC2Sn2C2HTe2HMgC2Sn2C2HTe2HMgC2Sn2C2HTe2HMgC2Sn2C2HTe2HMgC2Sn2C2HTe2HMgC2Sn2C2HTe2HMgC2Sn2C2HTe2HMgC2Sn2C2HTe2HMg
_chemical_formula_sum              "C224 H104 N16 Sn64 Te64 Mg32"
_cell_length_a       41.9761
_cell_length_b       45.7138
_cell_length_c       8.10521
_cell_angle_alpha    89.8665
_cell_angle_beta     88.6932
_cell_angle_gamma    90.0134

_symmetry_space_group_name_H-M    'P1'
_space_group_IT_number       1

loop_
  _space_group_symop_operation_xyz
  'x, y, z'

loop_
  _atom_site_type_symbol
  _atom_site_label
  _atom_site_symmetry_multiplicity
  _atom_site_fract_x
  _atom_site_fract_y
  _atom_site_fract_z
  _atom_site_occupancy
  C   C1        1.0  0.53447  0.52719  0.96655  1.0000
  C   C2        1.0  0.48383  0.55244  0.93357  1.0000
  C   C3        1.0  0.43252  0.52550  0.98057  1.0000
  H   H1        1.0  0.47085  0.57238  0.90702  1.0000
  C   C4        1.0  0.03470  0.02694  0.07024  1.0000
  C   C5        1.0  0.98425  0.05309  0.09978  1.0000
  C   C6        1.0  0.93284  0.02700  0.05488  1.0000
  H   H2        1.0  0.97135  0.07324  0.12475  1.0000
  C   C7        1.0  0.23998  0.75860  0.00156  1.0000
  C   C8        1.0  0.25960  0.73898  0.01419  1.0000
  C   C9        1.0  0.14826  0.84988  0.96008  1.0000
  N   N1        1.0  0.15163  0.87367  0.04444  1.0000
  N   N2        1.0  0.34867  0.62401  0.97134  1.0000
  C   C10       1.0  0.34937  0.64632  0.06935  1.0000
  H   H3        1.0  0.87443  0.15229  0.84974  1.0000
  H   H4        1.0  0.63593  0.35094  0.18183  1.0000
  C   C11       1.0  0.46720  0.47171  0.97087  1.0000
  C   C12       1.0  0.51827  0.44632  0.94587  1.0000
  C   C13       1.0  0.56926  0.47365  0.98579  1.0000
  H   H5        1.0  0.53152  0.42619  0.92573  1.0000
  C   C14       1.0  0.96636  0.97263  0.06726  1.0000
  C   C15       1.0  0.01657  0.94636  0.09626  1.0000
  C   C16       1.0  0.06856  0.97279  0.05793  1.0000
  H   H6        1.0  0.02912  0.92604  0.11897  1.0000
  C   C17       1.0  0.76620  0.24394  0.99149  1.0000
  C   C18       1.0  0.74592  0.26303  0.00751  1.0000
  C   C19       1.0  0.85582  0.15052  0.94695  1.0000
  N   N3        1.0  0.85351  0.12861  0.04820  1.0000
  N   N4        1.0  0.65303  0.37503  0.97549  1.0000
  C   C20       1.0  0.65282  0.35305  0.07650  1.0000
  H   H7        1.0  0.12799  0.84576  0.87988  1.0000
  H   H8        1.0  0.36668  0.64864  0.16835  1.0000
  C   C21       1.0  0.53556  0.47280  0.97038  1.0000
  C   C22       1.0  0.48569  0.44579  0.94578  1.0000
  C   C23       1.0  0.43335  0.47151  0.98831  1.0000
  H   H9        1.0  0.47345  0.42526  0.92425  1.0000
  C   C24       1.0  0.03467  0.97253  0.07152  1.0000
  C   C25       1.0  0.98401  0.94638  0.09330  1.0000
  C   C26       1.0  0.93266  0.97304  0.05102  1.0000
  H   H10       1.0  0.97110  0.92604  0.11312  1.0000
  C   C27       1.0  0.24060  0.24008  0.00742  1.0000
  C   C28       1.0  0.26167  0.25818  0.02670  1.0000
  C   C29       1.0  0.14837  0.14971  0.94786  1.0000
  N   N5        1.0  0.14949  0.12729  0.04531  1.0000
  N   N6        1.0  0.35320  0.37054  0.99737  1.0000
  C   C30       1.0  0.35449  0.34787  0.09286  1.0000
  H   H11       1.0  0.87303  0.84650  0.86475  1.0000
  H   H12       1.0  0.62735  0.65382  0.18395  1.0000
  C   C31       1.0  0.46632  0.52611  0.96410  1.0000
  C   C32       1.0  0.51637  0.55297  0.93554  1.0000
  C   C33       1.0  0.56809  0.52763  0.98443  1.0000
  H   H13       1.0  0.52900  0.57332  0.91120  1.0000
  C   C34       1.0  0.96652  0.02702  0.07095  1.0000
  C   C35       1.0  0.01680  0.05306  0.09873  1.0000
  C   C36       1.0  0.06852  0.02681  0.05350  1.0000
  H   H14       1.0  0.02955  0.07323  0.12235  1.0000
  C   C37       1.0  0.75909  0.76074  0.00590  1.0000
  C   C38       1.0  0.73834  0.74214  0.02483  1.0000
  C   C39       1.0  0.85309  0.85033  0.95228  1.0000
  N   N7        1.0  0.85028  0.87364  0.04177  1.0000
  N   N8        1.0  0.64806  0.62875  0.99106  1.0000
  C   C40       1.0  0.64603  0.65119  0.08781  1.0000
  H   H15       1.0  0.13075  0.15222  0.85043  1.0000
  H   H16       1.0  0.37235  0.34503  0.18880  1.0000
  C   C41       1.0  0.41734  0.49835  0.99626  1.0000
  C   C42       1.0  0.51797  0.49971  0.96984  1.0000
  H   H17       1.0  0.39169  0.49811  0.01835  1.0000
  C   C43       1.0  0.58420  0.50094  0.99660  1.0000
  C   C44       1.0  0.48380  0.49917  0.96939  1.0000
  H   H18       1.0  0.60966  0.50145  0.01851  1.0000
  C   C45       1.0  0.91715  0.00011  0.04295  1.0000
  C   C46       1.0  0.01766  0.99973  0.06876  1.0000
  H   H19       1.0  0.89162  0.00023  0.02277  1.0000
  C   C47       1.0  0.08417  0.99980  0.04565  1.0000
  C   C48       1.0  0.98349  0.99979  0.06792  1.0000
  H   H20       1.0  0.10987  0.99977  0.02539  1.0000
  C   C49       1.0  0.53360  0.52764  0.46960  1.0000
  C   C50       1.0  0.48344  0.55394  0.43976  1.0000
  C   C51       1.0  0.43145  0.52768  0.48203  1.0000
  H   H21       1.0  0.47085  0.57419  0.41530  1.0000
  C   C52       1.0  0.03334  0.02797  0.56788  1.0000
  C   C53       1.0  0.98309  0.05458  0.59469  1.0000
  C   C54       1.0  0.93133  0.02859  0.55370  1.0000
  H   H22       1.0  0.97042  0.07495  0.61719  1.0000
  C   C55       1.0  0.23688  0.75886  0.49912  1.0000
  C   C56       1.0  0.25731  0.74007  0.51623  1.0000
  C   C57       1.0  0.14619  0.85091  0.44632  1.0000
  N   N9        1.0  0.14648  0.87234  0.55037  1.0000
  N   N10       1.0  0.34890  0.62716  0.47619  1.0000
  C   C58       1.0  0.34990  0.64976  0.57192  1.0000
  H   H23       1.0  0.86553  0.15131  0.34570  1.0000
  H   H24       1.0  0.62399  0.34666  0.69040  1.0000
  C   C59       1.0  0.46523  0.47343  0.46884  1.0000
  C   C60       1.0  0.51568  0.44720  0.44226  1.0000
  C   C61       1.0  0.56692  0.47328  0.48981  1.0000
  H   H25       1.0  0.52861  0.42700  0.41862  1.0000
  C   C62       1.0  0.96448  0.97416  0.56999  1.0000
  C   C63       1.0  0.01449  0.94766  0.60007  1.0000
  C   C64       1.0  0.06654  0.97346  0.55262  1.0000
  H   H26       1.0  0.02685  0.92736  0.62622  1.0000
  C   C65       1.0  0.75539  0.23894  0.52905  1.0000
  C   C66       1.0  0.73484  0.25771  0.54720  1.0000
  C   C67       1.0  0.84926  0.14983  0.45379  1.0000
  N   N11       1.0  0.84958  0.12851  0.55901  1.0000
  N   N12       1.0  0.64627  0.37189  0.50226  1.0000
  C   C68       1.0  0.64342  0.34932  0.59828  1.0000
  H   H27       1.0  0.12986  0.84990  0.34225  1.0000
  H   H28       1.0  0.36764  0.65247  0.66846  1.0000
  C   C69       1.0  0.53333  0.47328  0.47158  1.0000
  C   C70       1.0  0.48315  0.44728  0.44084  1.0000
  C   C71       1.0  0.43142  0.47364  0.48428  1.0000
  H   H29       1.0  0.47052  0.42711  0.41552  1.0000
  C   C72       1.0  0.03274  0.97358  0.57026  1.0000
  C   C73       1.0  0.98194  0.94792  0.59911  1.0000
  C   C74       1.0  0.93080  0.97458  0.55394  1.0000
  H   H30       1.0  0.96888  0.92777  0.62258  1.0000
  C   C75       1.0  0.24252  0.23860  0.51221  1.0000
  C   C76       1.0  0.26261  0.25772  0.52833  1.0000
  C   C77       1.0  0.14897  0.14927  0.45091  1.0000
  N   N13       1.0  0.14987  0.12665  0.54710  1.0000
  N   N14       1.0  0.35071  0.37293  0.48999  1.0000
  C   C78       1.0  0.35250  0.35032  0.58586  1.0000
  H   H31       1.0  0.86820  0.85185  0.34342  1.0000
  H   H32       1.0  0.63148  0.65103  0.67059  1.0000
  C   C79       1.0  0.46531  0.52787  0.46761  1.0000
  C   C80       1.0  0.51602  0.55382  0.44052  1.0000
  C   C81       1.0  0.56730  0.52723  0.48539  1.0000
  H   H33       1.0  0.52912  0.57392  0.41642  1.0000
  C   C82       1.0  0.96505  0.02858  0.56841  1.0000
  C   C83       1.0  0.01567  0.05429  0.59461  1.0000
  C   C84       1.0  0.06716  0.02742  0.55109  1.0000
  H   H34       1.0  0.02862  0.07441  0.61699  1.0000
  C   C85       1.0  0.76200  0.75872  0.49828  1.0000
  C   C86       1.0  0.74201  0.73931  0.51172  1.0000
  C   C87       1.0  0.85092  0.85271  0.44742  1.0000
  N   N15       1.0  0.84949  0.87415  0.55147  1.0000
  N   N16       1.0  0.65100  0.62583  0.47537  1.0000
  C   C88       1.0  0.64976  0.64826  0.57251  1.0000
  H   H35       1.0  0.13113  0.15226  0.35501  1.0000
  H   H36       1.0  0.37061  0.34780  0.68082  1.0000
  C   C89       1.0  0.41581  0.50066  0.49344  1.0000
  C   C90       1.0  0.51641  0.50053  0.47224  1.0000
  H   H37       1.0  0.39010  0.50064  0.51328  1.0000
  C   C91       1.0  0.58265  0.50018  0.49898  1.0000
  C   C92       1.0  0.48227  0.50062  0.47108  1.0000
  H   H38       1.0  0.60814  0.50007  0.52029  1.0000
  C   C93       1.0  0.91554  0.00170  0.54314  1.0000
  C   C94       1.0  0.01599  0.00093  0.56715  1.0000
  H   H39       1.0  0.89004  0.00190  0.52250  1.0000
  C   C95       1.0  0.08245  0.00029  0.54007  1.0000
  C   C96       1.0  0.98181  0.00123  0.56731  1.0000
  H   H40       1.0  0.10807  0.00001  0.51743  1.0000
  C   C97       1.0  0.41925  0.58606  0.07079  1.0000
  C   C98       1.0  0.41398  0.55791  0.01032  1.0000
  C  Sn1       1.0  0.38225  0.55142  0.92124  1.0000
  C  Sn2       1.0  0.35985  0.57399  0.89231  1.0000
  C   C99       1.0  0.36536  0.60208  0.95322  1.0000
  C   C100      1.0  0.39718  0.60833  0.04226  1.0000
  H   H41       1.0  0.44047  0.59058  0.13960  1.0000
  O  Te1       1.0  0.37734  0.52317  0.86176  1.0000
  O  Te2       1.0  0.33235  0.56852  0.80360  1.0000
  H   H42       1.0  0.40127  0.63014  0.08896  1.0000
  Mg  Mg1       1.0  0.33626  0.52651  0.74775  1.0000
  C   C101      1.0  0.92169  0.08647  0.94232  1.0000
  C   C102      1.0  0.92165  0.06113  0.03317  1.0000
  C  Sn3       1.0  0.89406  0.05715  0.13030  1.0000
  C  Sn4       1.0  0.87051  0.07941  0.13629  1.0000
  C   C103      1.0  0.87517  0.10509  0.04486  1.0000
  C   C104      1.0  0.89847  0.10843  0.94811  1.0000
  H   H43       1.0  0.94311  0.08938  0.86739  1.0000
  O  Te3       1.0  0.89001  0.03129  0.22034  1.0000
  O  Te4       1.0  0.84270  0.07600  0.23231  1.0000
  H   H44       1.0  0.90189  0.12837  0.87770  1.0000
  Mg  Mg2       1.0  0.84809  0.03686  0.33304  1.0000
  C   C105      1.0  0.17957  0.77860  0.90223  1.0000
  C   C106      1.0  0.21043  0.77964  0.96309  1.0000
  C  Sn5       1.0  0.22612  0.80561  0.03583  1.0000
  C  Sn6       1.0  0.20608  0.83054  0.04775  1.0000
  C   C107      1.0  0.17083  0.82885  0.98660  1.0000
  C   C108      1.0  0.15978  0.80318  0.91399  1.0000
  H   H45       1.0  0.17101  0.75873  0.84613  1.0000
  O  Te5       1.0  0.25702  0.80628  0.09594  1.0000
  O  Te6       1.0  0.21675  0.85635  0.11993  1.0000
  H   H46       1.0  0.13588  0.80237  0.86699  1.0000
  Mg  Mg3       1.0  0.26072  0.84651  0.18375  1.0000
  C   C109      1.0  0.27928  0.68146  0.93632  1.0000
  C   C110      1.0  0.28319  0.70901  0.01535  1.0000
  C  Sn7       1.0  0.30849  0.71744  0.11369  1.0000
  C  Sn8       1.0  0.33476  0.69830  0.13301  1.0000
  C   C111      1.0  0.33504  0.67120  0.05333  1.0000
  C   C112      1.0  0.30518  0.66257  0.95525  1.0000
  H   H47       1.0  0.25960  0.67510  0.86035  1.0000
  O  Te7       1.0  0.30760  0.74462  0.19182  1.0000
  O  Te8       1.0  0.36037  0.70618  0.23054  1.0000
  H   H48       1.0  0.30559  0.64157  0.89399  1.0000
  Mg  Mg4       1.0  0.34816  0.74550  0.31194  1.0000
  C   C113      1.0  0.58285  0.41385  0.08799  1.0000
  C   C114      1.0  0.58802  0.44155  0.01909  1.0000
  C  Sn9       1.0  0.61083  0.44659  0.92144  1.0000
  C  Sn10      1.0  0.63325  0.42385  0.89240  1.0000
  C   C115      1.0  0.62785  0.39621  0.96179  1.0000
  C   C116      1.0  0.60494  0.39141  0.05936  1.0000
  H   H49       1.0  0.56171  0.40981  0.16340  1.0000
  O  Te9       1.0  0.61563  0.47439  0.85360  1.0000
  O  Te10      1.0  0.66065  0.42870  0.79523  1.0000
  H   H50       1.0  0.60094  0.36996  0.11259  1.0000
  Mg  Mg5       1.0  0.65661  0.47027  0.72984  1.0000
  C   C117      1.0  0.13644  0.92960  0.14312  1.0000
  C   C118      1.0  0.13166  0.90243  0.06897  1.0000
  C  Sn11      1.0  0.10012  0.89703  0.97642  1.0000
  C  Sn12      1.0  0.07739  0.91971  0.95795  1.0000
  C   C119      1.0  0.08681  0.94723  0.03253  1.0000
  C   C120      1.0  0.11405  0.95198  0.12491  1.0000
  H   H51       1.0  0.15752  0.93328  0.21452  1.0000
  O  Te11      1.0  0.09570  0.86975  0.90322  1.0000
  O  Te12      1.0  0.05006  0.91531  0.86608  1.0000
  H   H52       1.0  0.11775  0.97303  0.18222  1.0000
  Mg  Mg6       1.0  0.05467  0.87437  0.79003  1.0000
  C   C121      1.0  0.78414  0.18610  0.06630  1.0000
  C   C122      1.0  0.78676  0.21458  0.00449  1.0000
  C  Sn13      1.0  0.80885  0.22232  0.90747  1.0000
  C  Sn14      1.0  0.83311  0.20153  0.87183  1.0000
  C   C123      1.0  0.83025  0.17308  0.93415  1.0000
  C   C124      1.0  0.80806  0.16557  0.03115  1.0000
  H   H53       1.0  0.76355  0.17996  0.14127  1.0000
  O  Te13      1.0  0.81110  0.25088  0.84676  1.0000
  O  Te14      1.0  0.85983  0.20909  0.77513  1.0000
  H   H54       1.0  0.80602  0.14351  0.07890  1.0000
  Mg  Mg7       1.0  0.85208  0.25069  0.72072  1.0000
  C   C125      1.0  0.71196  0.33176  0.94021  1.0000
  C   C126      1.0  0.68672  0.33125  0.02206  1.0000
  C  Sn15      1.0  0.67781  0.30669  0.11511  1.0000
  C  Sn16      1.0  0.69903  0.28265  0.12621  1.0000
  C   C127      1.0  0.72865  0.28380  0.04396  1.0000
  C   C128      1.0  0.73291  0.30807  0.95115  1.0000
  H   H55       1.0  0.71868  0.35087  0.86847  1.0000
  O  Te15      1.0  0.64809  0.30613  0.19606  1.0000
  O  Te16      1.0  0.69073  0.25784  0.21841  1.0000
  H   H56       1.0  0.75587  0.30878  0.88787  1.0000
  Mg  Mg8       1.0  0.64762  0.26742  0.30649  1.0000
  C   C129      1.0  0.36630  0.42718  0.90841  1.0000
  C   C130      1.0  0.37227  0.39980  0.97823  1.0000
  C  Sn17      1.0  0.40413  0.39565  0.06912  1.0000
  C  Sn18      1.0  0.42595  0.41898  0.09033  1.0000
  C   C131      1.0  0.41974  0.44629  0.02008  1.0000
  C   C132      1.0  0.38780  0.45020  0.92932  1.0000
  H   H57       1.0  0.34498  0.43053  0.83826  1.0000
  O  Te17      1.0  0.40973  0.36816  0.13799  1.0000
  O  Te18      1.0  0.45356  0.41502  0.18063  1.0000
  H   H58       1.0  0.38317  0.47141  0.87536  1.0000
  Mg  Mg9       1.0  0.45071  0.37356  0.25055  1.0000
  C   C133      1.0  0.92054  0.91349  0.94074  1.0000
  C   C134      1.0  0.91912  0.94115  0.01321  1.0000
  C  Sn19      1.0  0.89152  0.94573  0.10922  1.0000
  C  Sn20      1.0  0.86938  0.92256  0.13295  1.0000
  C   C135      1.0  0.87543  0.89538  0.06003  1.0000
  C   C136      1.0  0.89872  0.89062  0.96414  1.0000
  H   H59       1.0  0.94197  0.91012  0.86662  1.0000
  O  Te19      1.0  0.88607  0.97309  0.18067  1.0000
  O  Te20      1.0  0.84160  0.92654  0.22838  1.0000
  H   H60       1.0  0.90323  0.86952  0.90814  1.0000
  Mg  Mg10      1.0  0.84478  0.96779  0.30019  1.0000
  C   C137      1.0  0.16953  0.20805  0.87712  1.0000
  C   C138      1.0  0.17084  0.17914  0.93288  1.0000
  C  Sn21      1.0  0.20053  0.17022  0.02903  1.0000
  C  Sn22      1.0  0.22491  0.19025  0.06996  1.0000
  C   C139      1.0  0.22337  0.21914  0.01367  1.0000
  C   C140      1.0  0.19357  0.22783  0.91748  1.0000
  H   H61       1.0  0.14987  0.21510  0.80277  1.0000
  O  Te21      1.0  0.20147  0.14125  0.08367  1.0000
  O  Te22      1.0  0.25044  0.18151  0.16593  1.0000
  H   H62       1.0  0.19255  0.25023  0.87442  1.0000
  Mg  Mg11      1.0  0.24115  0.13975  0.21113  1.0000
  C   C141      1.0  0.28274  0.31571  0.96455  1.0000
  C   C142      1.0  0.28804  0.28712  0.01916  1.0000
  C  Sn23      1.0  0.31330  0.27731  0.11403  1.0000
  C  Sn24      1.0  0.33807  0.29695  0.15483  1.0000
  C   C143      1.0  0.33693  0.32593  0.09970  1.0000
  C   C144      1.0  0.31155  0.33551  0.00479  1.0000
  H   H63       1.0  0.26309  0.32313  0.89120  1.0000
  O  Te23      1.0  0.31384  0.24826  0.16752  1.0000
  O  Te24      1.0  0.36358  0.28773  0.24953  1.0000
  H   H64       1.0  0.30645  0.35756  0.96262  1.0000
  Mg  Mg12      1.0  0.35365  0.24605  0.29347  1.0000
  C   C145      1.0  0.58871  0.60139  0.09086  1.0000
  C   C146      1.0  0.61919  0.60593  0.02265  1.0000
  C  Sn25      1.0  0.62951  0.58380  0.92689  1.0000
  C  Sn26      1.0  0.61335  0.55706  0.89909  1.0000
  C   C147      1.0  0.58285  0.55273  0.96778  1.0000
  C   C148      1.0  0.57275  0.57502  0.06344  1.0000
  H   H65       1.0  0.57747  0.61832  0.16480  1.0000
  O  Te25      1.0  0.65997  0.58870  0.85972  1.0000
  O  Te26      1.0  0.62751  0.53499  0.80383  1.0000
  H   H66       1.0  0.54914  0.57150  0.11615  1.0000
  Mg  Mg13      1.0  0.66933  0.55199  0.73866  1.0000
  C   C149      1.0  0.09160  0.10000  0.94012  1.0000
  C   C150      1.0  0.12370  0.10599  0.02723  1.0000
  C  Sn27      1.0  0.13742  0.08396  0.12197  1.0000
  C  Sn28      1.0  0.12310  0.05586  0.12936  1.0000
  C   C151      1.0  0.09541  0.05050  0.04168  1.0000
  C   C152      1.0  0.07747  0.07228  0.94730  1.0000
  H   H67       1.0  0.08113  0.11717  0.86703  1.0000
  O  Te27      1.0  0.16509  0.08991  0.20828  1.0000
  O  Te28      1.0  0.13633  0.03345  0.22305  1.0000
  H   H68       1.0  0.05604  0.06796  0.87979  1.0000
  Mg  Mg14      1.0  0.17415  0.05223  0.31891  1.0000
  C   C153      1.0  0.77954  0.81819  0.07243  1.0000
  C   C154      1.0  0.77502  0.79012  0.99938  1.0000
  C  Sn29      1.0  0.80173  0.78022  0.90997  1.0000
  C  Sn30      1.0  0.82903  0.79839  0.89365  1.0000
  C   C155      1.0  0.82892  0.82601  0.96730  1.0000
  C   C156      1.0  0.80646  0.83612  0.05645  1.0000
  H   H69       1.0  0.75876  0.82569  0.14148  1.0000
  O  Te29      1.0  0.80120  0.75253  0.83772  1.0000
  O  Te30      1.0  0.85606  0.78903  0.80502  1.0000
  H   H70       1.0  0.80657  0.85753  0.11308  1.0000
  Mg  Mg15      1.0  0.84382  0.74954  0.72909  1.0000
  C   C157      1.0  0.67862  0.72181  0.15036  1.0000
  C   C158      1.0  0.70865  0.72123  0.07237  1.0000
  C  Sn31      1.0  0.71431  0.69602  0.98535  1.0000
  C  Sn32      1.0  0.69388  0.67137  0.97644  1.0000
  C   C159      1.0  0.66828  0.67258  0.05479  1.0000
  C   C160      1.0  0.65845  0.69751  0.14158  1.0000
  H   H71       1.0  0.67101  0.74110  0.21744  1.0000
  O  Te31      1.0  0.74440  0.69580  0.90820  1.0000
  O  Te32      1.0  0.70334  0.64630  0.89025  1.0000
  H   H72       1.0  0.63519  0.69796  0.20186  1.0000
  Mg  Mg16      1.0  0.74654  0.65655  0.80559  1.0000
  C   C161      1.0  0.41854  0.58807  0.57950  1.0000
  C   C162      1.0  0.41328  0.56025  0.51439  1.0000
  C  Sn33      1.0  0.38625  0.55478  0.42186  1.0000
  C  Sn34      1.0  0.36412  0.57763  0.39418  1.0000
  C   C163      1.0  0.36961  0.60539  0.45975  1.0000
  C   C164      1.0  0.39673  0.61062  0.55220  1.0000
  H   H73       1.0  0.43953  0.59213  0.65096  1.0000
  O  Te33      1.0  0.38135  0.52686  0.35775  1.0000
  O  Te34      1.0  0.33691  0.57277  0.30210  1.0000
  H   H74       1.0  0.40081  0.63217  0.60251  1.0000
  Mg  Mg17      1.0  0.34072  0.53101  0.24041  1.0000
  C   C165      1.0  0.90874  0.10214  0.45086  1.0000
  C   C166      1.0  0.87840  0.10599  0.52208  1.0000
  C  Sn35      1.0  0.86455  0.08387  0.61893  1.0000
  C  Sn36      1.0  0.88145  0.05743  0.64479  1.0000
  C   C167      1.0  0.91179  0.05381  0.57309  1.0000
  C   C168      1.0  0.92543  0.07608  0.47635  1.0000
  H   H75       1.0  0.91930  0.11938  0.37607  1.0000
  O  Te35      1.0  0.83421  0.08807  0.68912  1.0000
  O  Te36      1.0  0.86817  0.03497  0.74110  1.0000
  H   H76       1.0  0.94892  0.07310  0.42131  1.0000
  Mg  Mg18      1.0  0.82618  0.05104  0.81055  1.0000
  C   C169      1.0  0.21578  0.81559  0.58148  1.0000
  C   C170      1.0  0.21521  0.78753  0.51354  1.0000
  C  Sn37      1.0  0.19093  0.77951  0.40755  1.0000
  C  Sn38      1.0  0.16682  0.80001  0.36906  1.0000
  C   C171      1.0  0.16762  0.82803  0.43758  1.0000
  C   C172      1.0  0.19201  0.83583  0.54353  1.0000
  H   H77       1.0  0.23466  0.82163  0.66339  1.0000
  O  Te37      1.0  0.19071  0.75138  0.34080  1.0000
  O  Te38      1.0  0.14229  0.79257  0.26345  1.0000
  H   H78       1.0  0.19246  0.85756  0.59603  1.0000
  Mg  Mg19      1.0  0.15230  0.75158  0.20331  1.0000
  C   C173      1.0  0.32906  0.70831  0.63809  1.0000
  C   C174      1.0  0.32742  0.67921  0.58646  1.0000
  C  Sn39      1.0  0.30152  0.66953  0.49614  1.0000
  C  Sn40      1.0  0.27684  0.68939  0.45693  1.0000
  C   C175      1.0  0.27871  0.71846  0.50905  1.0000
  C   C176      1.0  0.30473  0.72792  0.59941  1.0000
  H   H79       1.0  0.34920  0.71563  0.70793  1.0000
  O  Te39      1.0  0.30025  0.64038  0.44558  1.0000
  O  Te40      1.0  0.25068  0.68029  0.36675  1.0000
  H   H80       1.0  0.30600  0.75045  0.63927  1.0000
  Mg  Mg20      1.0  0.25974  0.63841  0.32550  1.0000
  C   C177      1.0  0.62381  0.44178  0.40513  1.0000
  C   C178      1.0  0.59301  0.44622  0.46935  1.0000
  C  Sn41      1.0  0.57811  0.42463  0.56593  1.0000
  C  Sn42      1.0  0.59441  0.39813  0.59865  1.0000
  C   C179      1.0  0.62522  0.39391  0.53393  1.0000
  C   C180      1.0  0.63990  0.41566  0.43740  1.0000
  H   H81       1.0  0.63517  0.45862  0.33052  1.0000
  O  Te41      1.0  0.54733  0.42941  0.62907  1.0000
  O  Te42      1.0  0.58009  0.37618  0.69484  1.0000
  H   H82       1.0  0.66375  0.41222  0.38779  1.0000
  Mg  Mg21      1.0  0.53784  0.39296  0.75329  1.0000
  C   C181      1.0  0.13381  0.92946  0.63478  1.0000
  C   C182      1.0  0.12778  0.90192  0.56775  1.0000
  C  Sn43      1.0  0.10014  0.89707  0.47896  1.0000
  C  Sn44      1.0  0.07817  0.92027  0.45703  1.0000
  C   C183      1.0  0.08443  0.94774  0.52447  1.0000
  C   C184      1.0  0.11216  0.95235  0.61315  1.0000
  H   H83       1.0  0.15527  0.93303  0.70332  1.0000
  O  Te43      1.0  0.09449  0.86942  0.41287  1.0000
  O  Te44      1.0  0.05037  0.91602  0.36877  1.0000
  H   H84       1.0  0.11683  0.97368  0.66494  1.0000
  Mg  Mg22      1.0  0.05324  0.87444  0.30235  1.0000
  C   C185      1.0  0.82591  0.20715  0.37689  1.0000
  C   C186      1.0  0.82769  0.17987  0.45438  1.0000
  C  Sn45      1.0  0.80312  0.17049  0.56099  1.0000
  C  Sn46      1.0  0.77630  0.18879  0.59029  1.0000
  C   C187      1.0  0.77474  0.21603  0.51208  1.0000
  C   C188      1.0  0.79946  0.22521  0.40567  1.0000
  H   H85       1.0  0.84504  0.21424  0.29449  1.0000
  O  Te45      1.0  0.80528  0.14318  0.63744  1.0000
  O  Te46      1.0  0.75139  0.17995  0.69622  1.0000
  H   H86       1.0  0.79807  0.24632  0.34561  1.0000
  Mg  Mg23      1.0  0.76530  0.14084  0.77144  1.0000
  C   C189      1.0  0.66341  0.29108  0.67702  1.0000
  C   C190      1.0  0.66552  0.31980  0.61833  1.0000
  C  Sn47      1.0  0.69172  0.32861  0.52112  1.0000
  C  Sn48      1.0  0.71624  0.30824  0.48211  1.0000
  C   C191      1.0  0.71390  0.27955  0.54132  1.0000
  C   C192      1.0  0.68757  0.27097  0.63854  1.0000
  H   H87       1.0  0.64303  0.28444  0.75216  1.0000
  O  Te47      1.0  0.69346  0.35739  0.46356  1.0000
  O  Te48      1.0  0.74269  0.31646  0.38514  1.0000
  H   H88       1.0  0.68594  0.24873  0.68386  1.0000
  Mg  Mg24      1.0  0.73424  0.35814  0.33577  1.0000
  C   C193      1.0  0.36431  0.42959  0.39865  1.0000
  C   C194      1.0  0.36972  0.40231  0.47094  1.0000
  C  Sn49      1.0  0.39691  0.39762  0.56371  1.0000
  C  Sn50      1.0  0.41904  0.42072  0.58431  1.0000
  C   C195      1.0  0.41339  0.44794  0.51159  1.0000
  C   C196      1.0  0.38612  0.45239  0.41897  1.0000
  H   H89       1.0  0.34320  0.43304  0.32706  1.0000
  O  Te49      1.0  0.40195  0.37023  0.63504  1.0000
  O  Te50      1.0  0.44640  0.41664  0.67646  1.0000
  H   H90       1.0  0.38192  0.47352  0.36310  1.0000
  Mg  Mg25      1.0  0.44276  0.37539  0.74945  1.0000
  C   C197      1.0  0.90778  0.90182  0.44200  1.0000
  C   C198      1.0  0.87948  0.89623  0.53068  1.0000
  C  Sn51      1.0  0.86533  0.91811  0.62750  1.0000
  C  Sn52      1.0  0.87984  0.94610  0.63541  1.0000
  C   C199      1.0  0.90813  0.95148  0.54613  1.0000
  C   C200      1.0  0.92209  0.92942  0.44968  1.0000
  H   H91       1.0  0.91857  0.88476  0.36730  1.0000
  O  Te51      1.0  0.83707  0.91215  0.71536  1.0000
  O  Te52      1.0  0.86620  0.96837  0.73116  1.0000
  H   H92       1.0  0.94399  0.93376  0.38095  1.0000
  Mg  Mg26      1.0  0.82761  0.94962  0.82858  1.0000
  C   C201      1.0  0.20922  0.16898  0.56539  1.0000
  C   C202      1.0  0.17912  0.17076  0.49587  1.0000
  C  Sn53      1.0  0.16969  0.19630  0.41561  1.0000
  C  Sn54      1.0  0.19084  0.22048  0.40492  1.0000
  C   C203      1.0  0.22091  0.21848  0.47478  1.0000
  C   C204      1.0  0.23010  0.19282  0.55485  1.0000
  H   H93       1.0  0.21634  0.14912  0.62727  1.0000
  O  Te53      1.0  0.13953  0.19771  0.34688  1.0000
  O  Te54      1.0  0.18203  0.24627  0.32536  1.0000
  H   H94       1.0  0.25342  0.19145  0.60857  1.0000
  Mg  Mg27      1.0  0.13842  0.23759  0.25113  1.0000
  C   C205      1.0  0.28167  0.31581  0.46023  1.0000
  C   C206      1.0  0.28355  0.28701  0.51731  1.0000
  C  Sn55      1.0  0.30907  0.27822  0.61337  1.0000
  C  Sn56      1.0  0.33312  0.29870  0.65286  1.0000
  C   C207      1.0  0.33101  0.32747  0.59526  1.0000
  C   C208      1.0  0.30537  0.33603  0.49917  1.0000
  H   H95       1.0  0.26183  0.32244  0.38596  1.0000
  O  Te55      1.0  0.31059  0.24935  0.66933  1.0000
  O  Te56      1.0  0.35888  0.29050  0.74870  1.0000
  H   H96       1.0  0.30392  0.35834  0.45509  1.0000
  Mg  Mg28      1.0  0.35038  0.24867  0.79603  1.0000
  C   C209      1.0  0.58101  0.58680  0.58989  1.0000
  C   C210      1.0  0.58410  0.56060  0.50246  1.0000
  C  Sn57      1.0  0.61131  0.55525  0.40474  1.0000
  C  Sn58      1.0  0.63586  0.57657  0.39463  1.0000
  C   C211      1.0  0.63256  0.60270  0.48267  1.0000
  C   C212      1.0  0.60522  0.60783  0.58005  1.0000
  H   H97       1.0  0.55987  0.59076  0.66531  1.0000
  O  Te57      1.0  0.61400  0.52897  0.31815  1.0000
  O  Te58      1.0  0.66332  0.57178  0.29793  1.0000
  H   H98       1.0  0.60285  0.62810  0.64781  1.0000
  Mg  Mg29      1.0  0.65594  0.53256  0.20290  1.0000
  C   C213      1.0  0.12430  0.05714  0.63804  1.0000
  C   C214      1.0  0.09396  0.05370  0.57334  1.0000
  C  Sn59      1.0  0.08060  0.07595  0.47883  1.0000
  C  Sn60      1.0  0.09802  0.10211  0.44871  1.0000
  C   C215      1.0  0.12836  0.10533  0.51390  1.0000
  C   C216      1.0  0.14149  0.08292  0.60834  1.0000
  H   H99       1.0  0.13447  0.03980  0.71104  1.0000
  O  Te59      1.0  0.05025  0.07216  0.41517  1.0000
  O  Te60      1.0  0.08524  0.12469  0.35463  1.0000
  H   H100      1.0  0.16500  0.08558  0.65833  1.0000
  Mg  Mg30      1.0  0.04302  0.10921  0.29447  1.0000
  C   C217      1.0  0.79268  0.82824  0.57650  1.0000
  C   C218      1.0  0.82244  0.82899  0.49571  1.0000
  C  Sn61      1.0  0.83272  0.80530  0.39980  1.0000
  C  Sn62      1.0  0.81278  0.78043  0.38470  1.0000
  C   C219      1.0  0.78304  0.77990  0.46593  1.0000
  C   C220      1.0  0.77299  0.80373  0.56162  1.0000
  H   H101      1.0  0.78490  0.84668  0.65048  1.0000
  O  Te61      1.0  0.86252  0.80641  0.31996  1.0000
  O  Te62      1.0  0.82245  0.75646  0.28958  1.0000
  H   H102      1.0  0.74994  0.80315  0.62408  1.0000
  Mg  Mg31      1.0  0.86513  0.76832  0.20448  1.0000
  C   C221      1.0  0.68251  0.71864  0.63468  1.0000
  C   C222      1.0  0.71252  0.71814  0.55637  1.0000
  C  Sn63      1.0  0.72261  0.69337  0.46916  1.0000
  C  Sn64      1.0  0.70224  0.66867  0.46037  1.0000
  C   C223      1.0  0.67227  0.66940  0.53904  1.0000
  C   C224      1.0  0.66240  0.69430  0.62602  1.0000
  H   H103      1.0  0.67487  0.73791  0.70191  1.0000
  O  Te63      1.0  0.75267  0.69323  0.39168  1.0000
  O  Te64      1.0  0.71174  0.64364  0.37398  1.0000
  H   H104      1.0  0.63917  0.69468  0.68655  1.0000
  Mg  Mg32      1.0  0.75488  0.65400  0.28891  1.0000
