data_image0
_chemical_formula_structural       C9H5C9H5C16NSNH6CN2CH2C3HC9H5C10NSNH2CN2CH2C3HC9H5C16NSNH6CN2CH2C9H5C3HC16NSNH6CN2CH2C2HC2HC2HC2HC9H5C3HC16NSNH6CN2CH2C9H5C9H5C16NSNH6CN2CH2C3HC3HC16NSNH6CN2CH2C3HC9H5C16NSNH6CN2CH2C2HC2HC2HC2HSnCSn2CSnTe4Mg2SnCSn2CSnTe4Mg2SnCSn2CSnTe4Mg2SnCSn2CSnTe4Mg2SnCSn2CSnTe4Mg2SnCSn2CSnTe4Mg2SnCSn2CSnTe4Mg2SnCSn2CSnTe4Mg2SnCSn2CSnTe4Mg2SnCSn2CSnTe4Mg2SnCSn2CSnTe4Mg2SnCSn2CSnTe4Mg2SnCSn2CSnTe4Mg2SnCSn2CSnTe4Mg2SnCSn2CSnTe4Mg2SnCSn2CSnTe4Mg2
_chemical_formula_sum              "C288 H120 N32 S8 Sn64 Te64 Mg32"
_cell_length_a       51.715
_cell_length_b       55.2782
_cell_length_c       8.03601
_cell_angle_alpha    89.6563
_cell_angle_beta     91.9006
_cell_angle_gamma    90.0425

_symmetry_space_group_name_H-M    'P1'
_space_group_IT_number       1

loop_
  _space_group_symop_operation_xyz
  'x, y, z'

loop_
  _atom_site_type_symbol
  _atom_site_label
  _atom_site_symmetry_multiplicity
  _atom_site_fract_x
  _atom_site_fract_y
  _atom_site_fract_z
  _atom_site_occupancy
  C   C1        1.0  0.52923  0.52282  0.06752  1.0000
  C   C2        1.0  0.48788  0.54406  0.05055  1.0000
  C   C3        1.0  0.44693  0.52195  0.10697  1.0000
  C   C4        1.0  0.43075  0.54392  0.10981  1.0000
  C   C5        1.0  0.40664  0.54381  0.02318  1.0000
  C   C6        1.0  0.39054  0.56389  0.02211  1.0000
  C   C7        1.0  0.39773  0.58507  0.10844  1.0000
  C   C8        1.0  0.42187  0.58534  0.19555  1.0000
  C   C9        1.0  0.43791  0.56514  0.19654  1.0000
  H   H1        1.0  0.47699  0.56064  0.02934  1.0000
  H   H2        1.0  0.40105  0.52799  0.95067  1.0000
  H   H3        1.0  0.37224  0.56390  0.95148  1.0000
  H   H4        1.0  0.42790  0.60126  0.26570  1.0000
  H   H5        1.0  0.45595  0.56532  0.27007  1.0000
  C   C10       1.0  0.02922  0.02265  0.95093  1.0000
  C   C11       1.0  0.98834  0.04388  0.98278  1.0000
  C   C12       1.0  0.94635  0.02197  0.93974  1.0000
  C   C13       1.0  0.93015  0.04395  0.93856  1.0000
  C   C14       1.0  0.93650  0.06547  0.85382  1.0000
  C   C15       1.0  0.92044  0.08564  0.85502  1.0000
  C   C16       1.0  0.89710  0.08511  0.94107  1.0000
  C   C17       1.0  0.89064  0.06361  0.02474  1.0000
  C   C18       1.0  0.90670  0.04353  0.02282  1.0000
  H   H6        1.0  0.97802  0.06043  0.00984  1.0000
  H   H7        1.0  0.95385  0.06598  0.78112  1.0000
  H   H8        1.0  0.92586  0.10170  0.78548  1.0000
  H   H9        1.0  0.87301  0.06341  0.09486  1.0000
  H   H10       1.0  0.90167  0.02748  0.09373  1.0000
  C   C19       1.0  0.19362  0.79937  0.93366  1.0000
  C   C20       1.0  0.21006  0.78367  0.95694  1.0000
  C   C21       1.0  0.22966  0.76644  0.98375  1.0000
  C   C22       1.0  0.25283  0.77244  0.07846  1.0000
  C   C23       1.0  0.27323  0.75482  0.10555  1.0000
  C   C24       1.0  0.27068  0.73078  0.04065  1.0000
  C   C25       1.0  0.24794  0.72575  0.94721  1.0000
  C   C26       1.0  0.22820  0.74291  0.91967  1.0000
  C   C27       1.0  0.28992  0.71330  0.07056  1.0000
  C   C28       1.0  0.30651  0.69781  0.09612  1.0000
  C   C29       1.0  0.32525  0.67956  0.12039  1.0000
  C   C30       1.0  0.34887  0.68414  0.20820  1.0000
  C   C31       1.0  0.36712  0.66586  0.23066  1.0000
  C   C32       1.0  0.36265  0.64265  0.16406  1.0000
  C   C33       1.0  0.33908  0.63813  0.07626  1.0000
  C   C34       1.0  0.32066  0.65610  0.05526  1.0000
  N   N1        1.0  0.29376  0.76343  0.19493  1.0000
  S   S1        1.0  0.28678  0.79145  0.23763  1.0000
  N   N2        1.0  0.25811  0.79411  0.14834  1.0000
  H   H11       1.0  0.24580  0.70784  0.89301  1.0000
  H   H12       1.0  0.21116  0.73804  0.84417  1.0000
  H   H13       1.0  0.35230  0.70204  0.25987  1.0000
  H   H14       1.0  0.38507  0.66950  0.30092  1.0000
  H   H15       1.0  0.33601  0.62015  0.02509  1.0000
  H   H16       1.0  0.30257  0.65260  0.98682  1.0000
  C   C35       1.0  0.12049  0.87586  0.85844  1.0000
  N   N3        1.0  0.12329  0.89543  0.94496  1.0000
  N   N4        1.0  0.37994  0.60410  0.09644  1.0000
  C   C36       1.0  0.38197  0.62358  0.18472  1.0000
  H   H17       1.0  0.89476  0.12626  0.76687  1.0000
  H   H18       1.0  0.60879  0.37418  0.26267  1.0000
  C   C37       1.0  0.47435  0.47734  0.08250  1.0000
  C   C38       1.0  0.51498  0.45615  0.04213  1.0000
  C   C39       1.0  0.55723  0.47823  0.07677  1.0000
  H   H19       1.0  0.52510  0.43950  0.01515  1.0000
  C   C40       1.0  0.97406  0.97725  0.95021  1.0000
  C   C41       1.0  0.01530  0.95587  0.97374  1.0000
  C   C42       1.0  0.05694  0.97811  0.93798  1.0000
  C   C43       1.0  0.07303  0.95605  0.93685  1.0000
  C   C44       1.0  0.06625  0.93547  0.84195  1.0000
  C   C45       1.0  0.08206  0.91513  0.84113  1.0000
  C   C46       1.0  0.10558  0.91457  0.93515  1.0000
  C   C47       1.0  0.11242  0.93512  0.02965  1.0000
  C   C48       1.0  0.09657  0.95539  0.03015  1.0000
  H   H20       1.0  0.02591  0.93909  0.99304  1.0000
  H   H21       1.0  0.04881  0.93595  0.76247  1.0000
  H   H22       1.0  0.07638  0.89993  0.76265  1.0000
  H   H23       1.0  0.13029  0.93438  0.10479  1.0000
  H   H24       1.0  0.10194  0.97073  0.10817  1.0000
  C   C49       1.0  0.80762  0.19928  0.94394  1.0000
  C   C50       1.0  0.79101  0.21459  0.96604  1.0000
  C   C51       1.0  0.77147  0.23161  0.99127  1.0000
  C   C52       1.0  0.74874  0.22515  0.07970  1.0000
  C   C53       1.0  0.72852  0.24269  0.10526  1.0000
  C   C54       1.0  0.73070  0.26699  0.04363  1.0000
  C   C55       1.0  0.75303  0.27245  0.95635  1.0000
  C   C56       1.0  0.77260  0.25542  0.93055  1.0000
  C   C57       1.0  0.71155  0.28441  0.06980  1.0000
  C   C58       1.0  0.69529  0.30010  0.09089  1.0000
  N   N5        1.0  0.70832  0.23367  0.18795  1.0000
  S   S2        1.0  0.71540  0.20539  0.22663  1.0000
  N   N6        1.0  0.74367  0.20310  0.14398  1.0000
  H   H25       1.0  0.75503  0.29062  0.90562  1.0000
  H   H26       1.0  0.78918  0.26067  0.85874  1.0000
  C   C59       1.0  0.88053  0.12356  0.86400  1.0000
  N   N7        1.0  0.87959  0.10423  0.95553  1.0000
  N   N8        1.0  0.62368  0.39555  0.06892  1.0000
  C   C60       1.0  0.62280  0.37654  0.16370  1.0000
  H   H27       1.0  0.10411  0.87266  0.77052  1.0000
  H   H28       1.0  0.39765  0.62689  0.27745  1.0000
  C   C61       1.0  0.52967  0.47781  0.06672  1.0000
  C   C62       1.0  0.48861  0.45589  0.04997  1.0000
  C   C63       1.0  0.44721  0.47735  0.10557  1.0000
  H   H29       1.0  0.47815  0.43904  0.02992  1.0000
  C   C64       1.0  0.02954  0.97768  0.94982  1.0000
  C   C65       1.0  0.98887  0.95567  0.97456  1.0000
  C   C66       1.0  0.94652  0.97730  0.93621  1.0000
  C   C67       1.0  0.93035  0.95524  0.93123  1.0000
  C   C68       1.0  0.93677  0.93418  0.84305  1.0000
  C   C69       1.0  0.92071  0.91398  0.83935  1.0000
  C   C70       1.0  0.89708  0.91402  0.92254  1.0000
  C   C71       1.0  0.89045  0.93513  0.00857  1.0000
  C   C72       1.0  0.90668  0.95514  0.01326  1.0000
  H   H30       1.0  0.97879  0.93877  0.99649  1.0000
  H   H31       1.0  0.95414  0.93410  0.77043  1.0000
  H   H32       1.0  0.92626  0.89841  0.76647  1.0000
  H   H33       1.0  0.87248  0.93499  0.07507  1.0000
  H   H34       1.0  0.90148  0.97074  0.08689  1.0000
  C   C73       1.0  0.19041  0.20354  0.93172  1.0000
  C   C74       1.0  0.20744  0.21863  0.95609  1.0000
  C   C75       1.0  0.22772  0.23508  0.98427  1.0000
  C   C76       1.0  0.25063  0.22807  0.07865  1.0000
  C   C77       1.0  0.27178  0.24491  0.10549  1.0000
  C   C78       1.0  0.27038  0.26905  0.03921  1.0000
  C   C79       1.0  0.24777  0.27508  0.94711  1.0000
  C   C80       1.0  0.22724  0.25876  0.92079  1.0000
  C   C81       1.0  0.29049  0.28576  0.06653  1.0000
  C   C82       1.0  0.30768  0.30068  0.09125  1.0000
  C   C83       1.0  0.32675  0.31865  0.11526  1.0000
  C   C84       1.0  0.35096  0.31356  0.19465  1.0000
  C   C85       1.0  0.36939  0.33173  0.21454  1.0000
  C   C86       1.0  0.36445  0.35539  0.15563  1.0000
  C   C87       1.0  0.34028  0.36042  0.07657  1.0000
  C   C88       1.0  0.32180  0.34252  0.05671  1.0000
  N   N9        1.0  0.29193  0.23547  0.19505  1.0000
  S   S3        1.0  0.28375  0.20766  0.23786  1.0000
  N   N10       1.0  0.25502  0.20613  0.14847  1.0000
  H   H35       1.0  0.24635  0.29308  0.89253  1.0000
  H   H36       1.0  0.21037  0.26447  0.84637  1.0000
  H   H37       1.0  0.35485  0.29534  0.24038  1.0000
  H   H38       1.0  0.38793  0.32772  0.27673  1.0000
  H   H39       1.0  0.33684  0.37868  0.03007  1.0000
  H   H40       1.0  0.30334  0.34643  0.99370  1.0000
  C   C89       1.0  0.11862  0.12612  0.84886  1.0000
  N   N11       1.0  0.12074  0.10704  0.94252  1.0000
  N   N12       1.0  0.38008  0.39524  0.10389  1.0000
  C   C90       1.0  0.38398  0.37429  0.17321  1.0000
  H   H41       1.0  0.89862  0.87063  0.77727  1.0000
  H   H42       1.0  0.60544  0.62804  0.26124  1.0000
  C   C91       1.0  0.47405  0.52231  0.08376  1.0000
  C   C92       1.0  0.51423  0.54430  0.04242  1.0000
  C   C93       1.0  0.55676  0.52293  0.07813  1.0000
  C   C94       1.0  0.57250  0.54521  0.08088  1.0000
  C   C95       1.0  0.59621  0.54561  0.99919  1.0000
  C   C96       1.0  0.61179  0.56606  0.00050  1.0000
  C   C97       1.0  0.60448  0.58720  0.08382  1.0000
  C   C98       1.0  0.58075  0.58701  0.16544  1.0000
  C   C99       1.0  0.56535  0.56638  0.16527  1.0000
  H   H43       1.0  0.52404  0.56112  0.01390  1.0000
  H   H44       1.0  0.60189  0.52988  0.92831  1.0000
  H   H45       1.0  0.62973  0.56645  0.93363  1.0000
  H   H46       1.0  0.57455  0.60288  0.23288  1.0000
  H   H47       1.0  0.54789  0.56632  0.23704  1.0000
  C   C100      1.0  0.97385  0.02224  0.95397  1.0000
  C   C101      1.0  0.01475  0.04411  0.97993  1.0000
  C   C102      1.0  0.05657  0.02275  0.93606  1.0000
  H   H48       1.0  0.02513  0.06090  0.00302  1.0000
  C   C103      1.0  0.86278  0.85564  0.86745  1.0000
  C   C104      1.0  0.86750  0.83253  0.80183  1.0000
  C   C105      1.0  0.84963  0.81392  0.81677  1.0000
  C   C106      1.0  0.82619  0.81802  0.89749  1.0000
  C   C107      1.0  0.82125  0.84139  0.96133  1.0000
  C   C108      1.0  0.83925  0.85972  0.94681  1.0000
  C   C109      1.0  0.80783  0.79951  0.91800  1.0000
  C   C110      1.0  0.79120  0.78418  0.94077  1.0000
  C   C111      1.0  0.77133  0.76760  0.96985  1.0000
  C   C112      1.0  0.74894  0.77493  0.05810  1.0000
  C   C113      1.0  0.72830  0.75801  0.08950  1.0000
  C   C114      1.0  0.72960  0.73352  0.03251  1.0000
  C   C115      1.0  0.75166  0.72717  0.94570  1.0000
  C   C116      1.0  0.77177  0.74354  0.91555  1.0000
  C   C117      1.0  0.70995  0.71673  0.06321  1.0000
  C   C118      1.0  0.69327  0.70157  0.08945  1.0000
  N   N13       1.0  0.70868  0.76774  0.17340  1.0000
  S   S4        1.0  0.71677  0.79590  0.20607  1.0000
  N   N14       1.0  0.74476  0.79726  0.11872  1.0000
  H   H49       1.0  0.88537  0.82930  0.73772  1.0000
  H   H50       1.0  0.85327  0.79616  0.76516  1.0000
  H   H51       1.0  0.80321  0.84441  0.02382  1.0000
  H   H52       1.0  0.83585  0.87758  0.99760  1.0000
  H   H53       1.0  0.75293  0.70880  0.89895  1.0000
  H   H54       1.0  0.78819  0.73759  0.84519  1.0000
  C   C119      1.0  0.88198  0.87477  0.85388  1.0000
  N   N15       1.0  0.87913  0.89512  0.93014  1.0000
  N   N16       1.0  0.62164  0.60667  0.07412  1.0000
  C   C120      1.0  0.62007  0.62571  0.16641  1.0000
  H   H55       1.0  0.10350  0.12848  0.75058  1.0000
  H   H56       1.0  0.40172  0.36944  0.24518  1.0000
  C   C121      1.0  0.43460  0.49956  0.12187  1.0000
  C   C122      1.0  0.51569  0.50018  0.07326  1.0000
  H   H57       1.0  0.41415  0.49945  0.14911  1.0000
  C   C123      1.0  0.56969  0.50070  0.08629  1.0000
  C   C124      1.0  0.48803  0.49993  0.08130  1.0000
  H   H58       1.0  0.59061  0.50091  0.10423  1.0000
  C   C125      1.0  0.93376  0.99961  0.92795  1.0000
  C   C126      1.0  0.01552  0.00006  0.94863  1.0000
  H   H59       1.0  0.91285  0.99959  0.90884  1.0000
  C   C127      1.0  0.06944  0.00052  0.92852  1.0000
  C   C128      1.0  0.98778  0.99984  0.94929  1.0000
  H   H60       1.0  0.09021  0.00064  0.91136  1.0000
  C   C129      1.0  0.52628  0.52257  0.57235  1.0000
  C   C130      1.0  0.48502  0.54393  0.55238  1.0000
  C   C131      1.0  0.44371  0.52183  0.60059  1.0000
  C   C132      1.0  0.42763  0.54388  0.60221  1.0000
  C   C133      1.0  0.40365  0.54400  0.51379  1.0000
  C   C134      1.0  0.38779  0.56426  0.51068  1.0000
  C   C135      1.0  0.39503  0.58539  0.59745  1.0000
  C   C136      1.0  0.41901  0.58545  0.68638  1.0000
  C   C137      1.0  0.43482  0.56506  0.68920  1.0000
  H   H61       1.0  0.47430  0.56061  0.53138  1.0000
  H   H62       1.0  0.39805  0.52825  0.44055  1.0000
  H   H63       1.0  0.36967  0.56444  0.43812  1.0000
  H   H64       1.0  0.42516  0.60143  0.75541  1.0000
  H   H65       1.0  0.45279  0.56522  0.76348  1.0000
  C   C138      1.0  0.02638  0.02188  0.44716  1.0000
  C   C139      1.0  0.98598  0.04362  0.48468  1.0000
  C   C140      1.0  0.94351  0.02220  0.44741  1.0000
  H   H66       1.0  0.97599  0.06033  0.51178  1.0000
  C   C141      1.0  0.19087  0.79904  0.42679  1.0000
  C   C142      1.0  0.20805  0.78409  0.45201  1.0000
  C   C143      1.0  0.22822  0.76755  0.48186  1.0000
  C   C144      1.0  0.25104  0.77430  0.57782  1.0000
  C   C145      1.0  0.27187  0.75719  0.60856  1.0000
  C   C146      1.0  0.27026  0.73303  0.54473  1.0000
  C   C147      1.0  0.24783  0.72732  0.44999  1.0000
  C   C148      1.0  0.22765  0.74390  0.41977  1.0000
  C   C149      1.0  0.28993  0.71594  0.57593  1.0000
  C   C150      1.0  0.30651  0.70038  0.60023  1.0000
  C   C151      1.0  0.32475  0.68156  0.62177  1.0000
  C   C152      1.0  0.34722  0.68414  0.72515  1.0000
  C   C153      1.0  0.36447  0.66498  0.74572  1.0000
  C   C154      1.0  0.36029  0.64297  0.66155  1.0000
  C   C155      1.0  0.33803  0.64053  0.55670  1.0000
  C   C156      1.0  0.32049  0.65931  0.53798  1.0000
  N   N17       1.0  0.29199  0.76641  0.69891  1.0000
  S   S5        1.0  0.28419  0.79437  0.73779  1.0000
  N   N18       1.0  0.25566  0.79621  0.64589  1.0000
  H   H67       1.0  0.24619  0.70929  0.39713  1.0000
  H   H68       1.0  0.21091  0.73837  0.34385  1.0000
  H   H69       1.0  0.35048  0.70106  0.79092  1.0000
  H   H70       1.0  0.38138  0.66688  0.82897  1.0000
  H   H71       1.0  0.33508  0.62354  0.49126  1.0000
  H   H72       1.0  0.30336  0.65738  0.45702  1.0000
  C   C157      1.0  0.11772  0.87523  0.33756  1.0000
  N   N19       1.0  0.11871  0.89366  0.43608  1.0000
  N   N20       1.0  0.37768  0.60480  0.58272  1.0000
  C   C158      1.0  0.37858  0.62302  0.68330  1.0000
  H   H73       1.0  0.89414  0.12772  0.27169  1.0000
  H   H74       1.0  0.60609  0.37396  0.76712  1.0000
  C   C159      1.0  0.47128  0.47720  0.58271  1.0000
  C   C160      1.0  0.51203  0.45596  0.54534  1.0000
  C   C161      1.0  0.55414  0.47794  0.58490  1.0000
  C   C162      1.0  0.57040  0.45599  0.58752  1.0000
  C   C163      1.0  0.59398  0.45632  0.50455  1.0000
  C   C164      1.0  0.61006  0.43622  0.50411  1.0000
  C   C165      1.0  0.60341  0.41470  0.58696  1.0000
  C   C166      1.0  0.57983  0.41419  0.67026  1.0000
  C   C167      1.0  0.56392  0.43447  0.67187  1.0000
  H   H75       1.0  0.52226  0.43945  0.51637  1.0000
  H   H76       1.0  0.59910  0.47228  0.43308  1.0000
  H   H77       1.0  0.62783  0.43645  0.43557  1.0000
  H   H78       1.0  0.57403  0.39797  0.73665  1.0000
  H   H79       1.0  0.54651  0.43399  0.74412  1.0000
  C   C168      1.0  0.97079  0.97719  0.45783  1.0000
  C   C169      1.0  0.01179  0.95535  0.47704  1.0000
  C   C170      1.0  0.05331  0.97694  0.42465  1.0000
  C   C171      1.0  0.06919  0.95479  0.41992  1.0000
  C   C172      1.0  0.06146  0.93350  0.33586  1.0000
  C   C173      1.0  0.07712  0.91302  0.33667  1.0000
  C   C174      1.0  0.10145  0.91305  0.42137  1.0000
  C   C175      1.0  0.10930  0.93430  0.50429  1.0000
  C   C176      1.0  0.09364  0.95467  0.50274  1.0000
  H   H80       1.0  0.02230  0.93856  0.49856  1.0000
  H   H81       1.0  0.04317  0.93337  0.26506  1.0000
  H   H82       1.0  0.07056  0.89698  0.26976  1.0000
  H   H83       1.0  0.12774  0.93401  0.57331  1.0000
  H   H84       1.0  0.09980  0.97050  0.57340  1.0000
  C   C177      1.0  0.80667  0.20088  0.44332  1.0000
  C   C178      1.0  0.78985  0.21596  0.46635  1.0000
  C   C179      1.0  0.77015  0.23280  0.49200  1.0000
  C   C180      1.0  0.74750  0.22627  0.58109  1.0000
  C   C181      1.0  0.72719  0.24373  0.60662  1.0000
  C   C182      1.0  0.72910  0.26796  0.54316  1.0000
  C   C183      1.0  0.75135  0.27348  0.45530  1.0000
  C   C184      1.0  0.77112  0.25659  0.43093  1.0000
  C   C185      1.0  0.70981  0.28526  0.56860  1.0000
  C   C186      1.0  0.69350  0.30084  0.59118  1.0000
  C   C187      1.0  0.67533  0.31944  0.61380  1.0000
  C   C188      1.0  0.65260  0.31548  0.70314  1.0000
  C   C189      1.0  0.63495  0.33414  0.72232  1.0000
  C   C190      1.0  0.63902  0.35712  0.65082  1.0000
  C   C191      1.0  0.66171  0.36102  0.56176  1.0000
  C   C192      1.0  0.67961  0.34270  0.54447  1.0000
  N   N21       1.0  0.70720  0.23468  0.69113  1.0000
  S   S6        1.0  0.71446  0.20647  0.73087  1.0000
  N   N22       1.0  0.74263  0.20426  0.64664  1.0000
  H   H85       1.0  0.75303  0.29157  0.40275  1.0000
  H   H86       1.0  0.78777  0.26186  0.35974  1.0000
  H   H87       1.0  0.64941  0.29779  0.75879  1.0000
  H   H88       1.0  0.61772  0.33101  0.79378  1.0000
  H   H89       1.0  0.66465  0.37875  0.50621  1.0000
  H   H90       1.0  0.69702  0.34577  0.47506  1.0000
  C   C193      1.0  0.87954  0.12498  0.36652  1.0000
  N   N23       1.0  0.87812  0.10558  0.45690  1.0000
  N   N24       1.0  0.62095  0.39556  0.57488  1.0000
  C   C194      1.0  0.62023  0.37651  0.66932  1.0000
  H   H91       1.0  0.10353  0.87345  0.23350  1.0000
  H   H92       1.0  0.39250  0.62439  0.78943  1.0000
  C   C195      1.0  0.52661  0.47760  0.57219  1.0000
  C   C196      1.0  0.48565  0.45575  0.55149  1.0000
  C   C197      1.0  0.44402  0.47713  0.60217  1.0000
  H   H93       1.0  0.47517  0.43897  0.53005  1.0000
  C   C198      1.0  0.02609  0.97690  0.44553  1.0000
  C   C199      1.0  0.98541  0.95550  0.48359  1.0000
  C   C200      1.0  0.94326  0.97751  0.44561  1.0000
  H   H94       1.0  0.97523  0.93884  0.51111  1.0000
  C   C201      1.0  0.13646  0.14324  0.37268  1.0000
  C   C202      1.0  0.13204  0.16590  0.29583  1.0000
  C   C203      1.0  0.14951  0.18480  0.31939  1.0000
  C   C204      1.0  0.17232  0.18134  0.41840  1.0000
  C   C205      1.0  0.17688  0.15842  0.49428  1.0000
  C   C206      1.0  0.15915  0.13988  0.47256  1.0000
  C   C207      1.0  0.19068  0.19994  0.44228  1.0000
  C   C208      1.0  0.20759  0.21519  0.46524  1.0000
  C   C209      1.0  0.22772  0.23185  0.49237  1.0000
  C   C210      1.0  0.25065  0.22511  0.58767  1.0000
  C   C211      1.0  0.27165  0.24212  0.61433  1.0000
  C   C212      1.0  0.27022  0.26612  0.54564  1.0000
  C   C213      1.0  0.24759  0.27191  0.45281  1.0000
  C   C214      1.0  0.22715  0.25545  0.42721  1.0000
  C   C215      1.0  0.29031  0.28292  0.57030  1.0000
  C   C216      1.0  0.30723  0.29823  0.59091  1.0000
  N   N25       1.0  0.29183  0.23288  0.70456  1.0000
  S   S7        1.0  0.28392  0.20501  0.74774  1.0000
  N   N26       1.0  0.25522  0.20324  0.65818  1.0000
  H   H95       1.0  0.11474  0.16853  0.21683  1.0000
  H   H96       1.0  0.14618  0.20225  0.25927  1.0000
  H   H97       1.0  0.19444  0.15580  0.57048  1.0000
  H   H98       1.0  0.16229  0.12236  0.53214  1.0000
  H   H99       1.0  0.24610  0.28986  0.39728  1.0000
  H   H100      1.0  0.21028  0.26097  0.35185  1.0000
  C   C217      1.0  0.11795  0.12357  0.34872  1.0000
  N   N27       1.0  0.11923  0.10471  0.44484  1.0000
  N   N28       1.0  0.37925  0.39326  0.58604  1.0000
  C   C218      1.0  0.38035  0.37447  0.68289  1.0000
  H   H101      1.0  0.89527  0.87181  0.26477  1.0000
  H   H102      1.0  0.60474  0.62696  0.76318  1.0000
  C   C219      1.0  0.47097  0.52219  0.58232  1.0000
  C   C220      1.0  0.51141  0.54410  0.54691  1.0000
  C   C221      1.0  0.55379  0.52262  0.58474  1.0000
  H   H103      1.0  0.52140  0.56093  0.52103  1.0000
  C   C222      1.0  0.97106  0.02217  0.45862  1.0000
  C   C223      1.0  0.01237  0.04350  0.47891  1.0000
  C   C224      1.0  0.05359  0.02158  0.42661  1.0000
  C   C225      1.0  0.06966  0.04364  0.42426  1.0000
  C   C226      1.0  0.06231  0.06492  0.33738  1.0000
  C   C227      1.0  0.07797  0.08541  0.33979  1.0000
  C   C228      1.0  0.10194  0.08533  0.42882  1.0000
  C   C229      1.0  0.10941  0.06407  0.51481  1.0000
  C   C230      1.0  0.09372  0.04369  0.51173  1.0000
  H   H104      1.0  0.02308  0.06015  0.50062  1.0000
  H   H105      1.0  0.04434  0.06504  0.26315  1.0000
  H   H106      1.0  0.07170  0.10143  0.27028  1.0000
  H   H107      1.0  0.12758  0.06438  0.58690  1.0000
  H   H108      1.0  0.09952  0.02782  0.58437  1.0000
  C   C231      1.0  0.86132  0.85521  0.37198  1.0000
  C   C232      1.0  0.86508  0.83268  0.29549  1.0000
  C   C233      1.0  0.84723  0.81407  0.31183  1.0000
  C   C234      1.0  0.82476  0.81764  0.40392  1.0000
  C   C235      1.0  0.82089  0.84043  0.47958  1.0000
  C   C236      1.0  0.83893  0.85868  0.46459  1.0000
  C   C237      1.0  0.80622  0.79927  0.42387  1.0000
  C   C238      1.0  0.78937  0.78419  0.44796  1.0000
  C   C239      1.0  0.76961  0.76744  0.47601  1.0000
  C   C240      1.0  0.74713  0.77421  0.56547  1.0000
  C   C241      1.0  0.72662  0.75697  0.59323  1.0000
  C   C242      1.0  0.72833  0.73263  0.53377  1.0000
  C   C243      1.0  0.75046  0.72683  0.44604  1.0000
  C   C244      1.0  0.77032  0.74356  0.41818  1.0000
  C   C245      1.0  0.70901  0.71544  0.56324  1.0000
  C   C246      1.0  0.69270  0.69991  0.58873  1.0000
  N   N29       1.0  0.70670  0.76623  0.67656  1.0000
  S   S8        1.0  0.71433  0.79439  0.71312  1.0000
  N   N30       1.0  0.74254  0.79630  0.62887  1.0000
  H   H109      1.0  0.88210  0.82996  0.22156  1.0000
  H   H110      1.0  0.85009  0.79677  0.25157  1.0000
  H   H111      1.0  0.80365  0.84311  0.55097  1.0000
  H   H112      1.0  0.83639  0.87610  0.52401  1.0000
  H   H113      1.0  0.75208  0.70862  0.39703  1.0000
  H   H114      1.0  0.78686  0.73797  0.34770  1.0000
  C   C247      1.0  0.88000  0.87472  0.35470  1.0000
  N   N31       1.0  0.87783  0.89425  0.44128  1.0000
  N   N32       1.0  0.62008  0.60535  0.57435  1.0000
  C   C248      1.0  0.61914  0.62439  0.66705  1.0000
  H   H115      1.0  0.10358  0.12570  0.24568  1.0000
  H   H116      1.0  0.39427  0.37264  0.78878  1.0000
  C   C249      1.0  0.43129  0.49940  0.61288  1.0000
  C   C250      1.0  0.51265  0.49998  0.57686  1.0000
  H   H117      1.0  0.41061  0.49931  0.63344  1.0000
  C   C251      1.0  0.56664  0.50036  0.59443  1.0000
  C   C252      1.0  0.48495  0.49979  0.58209  1.0000
  H   H118      1.0  0.58756  0.50053  0.61303  1.0000
  C   C253      1.0  0.93067  0.99993  0.43786  1.0000
  C   C254      1.0  0.01241  0.99947  0.44719  1.0000
  H   H119      1.0  0.90974  0.99999  0.42011  1.0000
  C   C255      1.0  0.06599  0.99924  0.41275  1.0000
  C   C256      1.0  0.98472  0.99961  0.45327  1.0000
  H   H120      1.0  0.08658  0.99924  0.38944  1.0000
  C  Sn1       1.0  0.60943  0.44485  0.02841  1.0000
  C   C257      1.0  0.60574  0.42260  0.10759  1.0000
  C  Sn2       1.0  0.58140  0.41621  0.16408  1.0000
  C  Sn3       1.0  0.56030  0.43239  0.14086  1.0000
  C   C258      1.0  0.56399  0.45463  0.06170  1.0000
  C  Sn4       1.0  0.58833  0.46104  0.00519  1.0000
  O  Te1       1.0  0.63909  0.45000  0.97293  1.0000
  O  Te2       1.0  0.57818  0.39386  0.24294  1.0000
  O  Te3       1.0  0.53578  0.42636  0.19643  1.0000
  O  Te4       1.0  0.59671  0.48249  0.92635  1.0000
  Mg  Mg1       1.0  0.54109  0.39387  0.29657  1.0000
  Mg  Mg2       1.0  0.63378  0.48250  0.87260  1.0000
  C  Sn5       1.0  0.39890  0.45466  0.05787  1.0000
  C   C259      1.0  0.42355  0.45734  0.13218  1.0000
  C  Sn6       1.0  0.43724  0.43713  0.19198  1.0000
  C  Sn7       1.0  0.42607  0.41377  0.17711  1.0000
  C   C260      1.0  0.40144  0.41111  0.10281  1.0000
  C  Sn8       1.0  0.38773  0.43130  0.04300  1.0000
  O  Te5       1.0  0.39072  0.47424  0.99895  1.0000
  O  Te6       1.0  0.46184  0.44026  0.26585  1.0000
  O  Te7       1.0  0.43943  0.39332  0.23611  1.0000
  O  Te8       1.0  0.36830  0.42732  0.96915  1.0000
  Mg  Mg3       1.0  0.47237  0.40686  0.32697  1.0000
  Mg  Mg4       1.0  0.35776  0.46070  0.90790  1.0000
  C  Sn9       1.0  0.16725  0.85806  0.43857  1.0000
  C   C261      1.0  0.14417  0.85807  0.34313  1.0000
  C  Sn10      1.0  0.13347  0.83636  0.28533  1.0000
  C  Sn11      1.0  0.14611  0.81416  0.32381  1.0000
  C   C262      1.0  0.16918  0.81415  0.41922  1.0000
  C  Sn12      1.0  0.17989  0.83586  0.47705  1.0000
  O  Te9       1.0  0.17759  0.87998  0.49505  1.0000
  O  Te10      1.0  0.11038  0.83683  0.19008  1.0000
  O  Te11      1.0  0.13575  0.79223  0.26724  1.0000
  O  Te12      1.0  0.20297  0.83539  0.57227  1.0000
  Mg  Mg5       1.0  0.10391  0.80223  0.14181  1.0000
  Mg  Mg6       1.0  0.20945  0.86998  0.62068  1.0000
  C  Sn13      1.0  0.64576  0.31607  0.17158  1.0000
  C   C263      1.0  0.66880  0.31641  0.08546  1.0000
  C  Sn14      1.0  0.67990  0.33837  0.03893  1.0000
  C  Sn15      1.0  0.66773  0.36046  0.07941  1.0000
  C   C264      1.0  0.64471  0.36011  0.16549  1.0000
  C  Sn16      1.0  0.63359  0.33815  0.21205  1.0000
  O  Te13      1.0  0.63501  0.29390  0.21686  1.0000
  O  Te14      1.0  0.70809  0.33739  0.95286  1.0000
  O  Te15      1.0  0.67850  0.38263  0.03404  1.0000
  O  Te16      1.0  0.61057  0.33826  0.29809  1.0000
  Mg  Mg7       1.0  0.71523  0.37222  0.91828  1.0000
  Mg  Mg8       1.0  0.60342  0.30344  0.33281  1.0000
  C  Sn17      1.0  0.14986  0.81945  0.77245  1.0000
  C   C265      1.0  0.17383  0.81968  0.85805  1.0000
  C  Sn18      1.0  0.18014  0.83834  0.96859  1.0000
  C  Sn19      1.0  0.16211  0.85717  0.99419  1.0000
  C   C266      1.0  0.13816  0.85694  0.90864  1.0000
  C  Sn20      1.0  0.13183  0.83828  0.79805  1.0000
  O  Te17      1.0  0.14397  0.80061  0.66255  1.0000
  O  Te18      1.0  0.19907  0.83905  0.05270  1.0000
  O  Te19      1.0  0.16287  0.87689  0.10419  1.0000
  O  Te20      1.0  0.10777  0.83844  0.71400  1.0000
  Mg  Mg9       1.0  0.19813  0.86867  0.18965  1.0000
  Mg  Mg10      1.0  0.10868  0.80882  0.57709  1.0000
  C  Sn21      1.0  0.39411  0.43680  0.47003  1.0000
  C   C267      1.0  0.39837  0.41490  0.55426  1.0000
  C  Sn22      1.0  0.41716  0.41325  0.68279  1.0000
  C  Sn23      1.0  0.43198  0.43393  0.72817  1.0000
  C   C268      1.0  0.42770  0.45581  0.64399  1.0000
  C  Sn24      1.0  0.40893  0.45748  0.51541  1.0000
  O  Te21      1.0  0.37523  0.43804  0.34193  1.0000
  O  Te22      1.0  0.42108  0.39116  0.76514  1.0000
  O  Te23      1.0  0.45087  0.43268  0.85638  1.0000
  O  Te24      1.0  0.40500  0.47956  0.43311  1.0000
  Mg  Mg11      1.0  0.44903  0.39857  0.93138  1.0000
  Mg  Mg12      1.0  0.37704  0.47217  0.26691  1.0000
  C  Sn25      1.0  0.09719  0.05201  0.06613  1.0000
  C   C269      1.0  0.07867  0.04708  0.98191  1.0000
  C  Sn26      1.0  0.07042  0.06236  0.85170  1.0000
  C  Sn27      1.0  0.08615  0.08211  0.80460  1.0000
  C   C270      1.0  0.10980  0.08617  0.88877  1.0000
  C  Sn28      1.0  0.11292  0.07177  0.01903  1.0000
  O  Te25      1.0  0.10506  0.03650  0.19593  1.0000
  O  Te26      1.0  0.04668  0.05793  0.76939  1.0000
  O  Te27      1.0  0.07826  0.09763  0.67469  1.0000
  O  Te28      1.0  0.13664  0.07618  0.10129  1.0000
  Mg  Mg13      1.0  0.04437  0.08413  0.60047  1.0000
  Mg  Mg14      1.0  0.13898  0.04999  0.27016  1.0000
  C  Sn29      1.0  0.65138  0.68169  0.25501  1.0000
  C   C271      1.0  0.67394  0.68144  0.16402  1.0000
  C  Sn30      1.0  0.67808  0.66316  0.04869  1.0000
  C  Sn31      1.0  0.65926  0.64474  0.02369  1.0000
  C   C272      1.0  0.63671  0.64500  0.11462  1.0000
  C  Sn32      1.0  0.63256  0.66328  0.23001  1.0000
  O  Te29      1.0  0.64765  0.70015  0.36964  1.0000
  O  Te30      1.0  0.70594  0.66242  0.95923  1.0000
  O  Te31      1.0  0.66816  0.62540  0.90894  1.0000
  O  Te32      1.0  0.60987  0.66315  0.31940  1.0000
  Mg  Mg15      1.0  0.70219  0.63341  0.81711  1.0000
  Mg  Mg16      1.0  0.61360  0.69216  0.46149  1.0000
  C  Sn33      1.0  0.82306  0.15577  0.03851  1.0000
  C   C273      1.0  0.82871  0.17822  0.97059  1.0000
  C  Sn34      1.0  0.84536  0.18379  0.84242  1.0000
  C  Sn35      1.0  0.86184  0.16566  0.78075  1.0000
  C   C274      1.0  0.86133  0.14235  0.84863  1.0000
  C  Sn36      1.0  0.84469  0.13677  0.97684  1.0000
  O  Te33      1.0  0.80626  0.15061  0.16657  1.0000
  O  Te34      1.0  0.84552  0.20723  0.77655  1.0000
  O  Te35      1.0  0.87864  0.17083  0.65259  1.0000
  O  Te36      1.0  0.83937  0.11421  0.04268  1.0000
  Mg  Mg17      1.0  0.87179  0.20541  0.60340  1.0000
  Mg  Mg18      1.0  0.81310  0.11601  0.21576  1.0000
  C  Sn37      1.0  0.92704  0.91506  0.38385  1.0000
  C   C275      1.0  0.90324  0.91156  0.45794  1.0000
  C  Sn38      1.0  0.88918  0.93132  0.51374  1.0000
  C  Sn39      1.0  0.89910  0.95507  0.49500  1.0000
  C   C276      1.0  0.92288  0.95856  0.42092  1.0000
  C  Sn40      1.0  0.93696  0.93881  0.36511  1.0000
  O  Te37      1.0  0.94076  0.89504  0.32898  1.0000
  O  Te38      1.0  0.86544  0.92737  0.58747  1.0000
  O  Te39      1.0  0.88535  0.97509  0.54996  1.0000
  O  Te40      1.0  0.96068  0.94275  0.29140  1.0000
  Mg  Mg19      1.0  0.85393  0.96044  0.64231  1.0000
  Mg  Mg20      1.0  0.97220  0.90970  0.23644  1.0000
  C  Sn41      1.0  0.86643  0.17456  0.35404  1.0000
  C   C277      1.0  0.86483  0.15070  0.41130  1.0000
  C  Sn42      1.0  0.84137  0.14144  0.46500  1.0000
  C  Sn43      1.0  0.81904  0.15633  0.46131  1.0000
  C   C278      1.0  0.82064  0.18017  0.40405  1.0000
  C  Sn44      1.0  0.84409  0.18945  0.35035  1.0000
  O  Te41      1.0  0.89008  0.18344  0.30094  1.0000
  O  Te42      1.0  0.84026  0.11753  0.52177  1.0000
  O  Te43      1.0  0.79537  0.14743  0.51448  1.0000
  O  Te44      1.0  0.84521  0.21334  0.29358  1.0000
  Mg  Mg21      1.0  0.80361  0.11371  0.58099  1.0000
  Mg  Mg22      1.0  0.88184  0.21718  0.23425  1.0000
  C  Sn45      1.0  0.89576  0.04554  0.49383  1.0000
  C   C279      1.0  0.91973  0.04261  0.42115  1.0000
  C  Sn46      1.0  0.93352  0.06273  0.36654  1.0000
  C  Sn47      1.0  0.92315  0.08626  0.38505  1.0000
  C   C280      1.0  0.89920  0.08919  0.45772  1.0000
  C  Sn48      1.0  0.88539  0.06908  0.51235  1.0000
  O  Te45      1.0  0.88231  0.02518  0.54754  1.0000
  O  Te46      1.0  0.95744  0.05934  0.29420  1.0000
  O  Te47      1.0  0.93662  0.10664  0.33127  1.0000
  O  Te48      1.0  0.86149  0.07246  0.58467  1.0000
  Mg  Mg23      1.0  0.96843  0.09272  0.24060  1.0000
  Mg  Mg24      1.0  0.85048  0.03909  0.63839  1.0000
  C  Sn49      1.0  0.66935  0.64050  0.59268  1.0000
  C   C281      1.0  0.64568  0.64150  0.67125  1.0000
  C  Sn50      1.0  0.63483  0.66378  0.71095  1.0000
  C  Sn51      1.0  0.64791  0.68551  0.67121  1.0000
  C   C282      1.0  0.67157  0.68451  0.59266  1.0000
  C  Sn52      1.0  0.68243  0.66223  0.55293  1.0000
  O  Te49      1.0  0.67984  0.61802  0.55413  1.0000
  O  Te50      1.0  0.61114  0.66432  0.78955  1.0000
  O  Te51      1.0  0.63740  0.70800  0.70983  1.0000
  O  Te52      1.0  0.70611  0.66168  0.47436  1.0000
  Mg  Mg25      1.0  0.60469  0.69935  0.81671  1.0000
  Mg  Mg26      1.0  0.71257  0.62666  0.44706  1.0000
  C  Sn53      1.0  0.36687  0.32494  0.70708  1.0000
  C   C283      1.0  0.36615  0.34817  0.63750  1.0000
  C  Sn54      1.0  0.34337  0.35703  0.56135  1.0000
  C  Sn55      1.0  0.32084  0.34237  0.55470  1.0000
  C   C284      1.0  0.32157  0.31916  0.62427  1.0000
  C  Sn56      1.0  0.34434  0.31028  0.70043  1.0000
  O  Te53      1.0  0.38985  0.31645  0.78259  1.0000
  O  Te54      1.0  0.34312  0.38031  0.49261  1.0000
  O  Te55      1.0  0.29785  0.35088  0.47910  1.0000
  O  Te56      1.0  0.34459  0.28702  0.76917  1.0000
  Mg  Mg27      1.0  0.30717  0.38379  0.40328  1.0000
  Mg  Mg28      1.0  0.38053  0.28352  0.85860  1.0000
  C  Sn57      1.0  0.60161  0.54562  0.53789  1.0000
  C   C285      1.0  0.57761  0.54289  0.61080  1.0000
  C  Sn58      1.0  0.56413  0.56311  0.66496  1.0000
  C  Sn59      1.0  0.57484  0.58654  0.64576  1.0000
  C   C286      1.0  0.59882  0.58927  0.57287  1.0000
  C  Sn60      1.0  0.61232  0.56906  0.51869  1.0000
  O  Te57      1.0  0.61475  0.52516  0.48464  1.0000
  O  Te58      1.0  0.54017  0.55992  0.73753  1.0000
  O  Te59      1.0  0.56168  0.60701  0.69909  1.0000
  O  Te60      1.0  0.63626  0.57224  0.44614  1.0000
  Mg  Mg29      1.0  0.52968  0.59337  0.79031  1.0000
  Mg  Mg30      1.0  0.64677  0.53881  0.39323  1.0000
  C  Sn61      1.0  0.13810  0.17165  0.75027  1.0000
  C   C287      1.0  0.13998  0.14831  0.81739  1.0000
  C  Sn62      1.0  0.15751  0.14332  0.94907  1.0000
  C  Sn63      1.0  0.16834  0.16291  0.01512  1.0000
  C   C288      1.0  0.17160  0.18536  0.94803  1.0000
  C  Sn64      1.0  0.15408  0.19037  0.81632  1.0000
  O  Te61      1.0  0.12044  0.17623  0.61866  1.0000
  O  Te62      1.0  0.15390  0.12071  0.01407  1.0000
  O  Te63      1.0  0.18601  0.15830  0.14683  1.0000
  O  Te64      1.0  0.15253  0.21383  0.75135  1.0000
  Mg  Mg31      1.0  0.18095  0.12344  0.19315  1.0000
  Mg  Mg32      1.0  0.12548  0.21112  0.57233  1.0000
