data_image0
_chemical_formula_structural       C9H5C6H4CNHC3HCNHC9H5CNHC3HCNHC3HCNHC3HCNHC3HC6H4CNHC9H5CNHC2HC2HC2HC2HC9H5C6H4CNHC9H5CNHC3HCNHC9H5CNHC9H5CNHC3HCNHC9H5CNHC9H5CNHC2HC2HC2HC2HSnCSn2CSnTe4Mg2SnCSn2CSnTe4Mg2SnCSn2CSnTe4Mg2SnCSn2CSnTe4Mg2SnCSn2CSnTe4Mg2SnCSn2CSnTe4Mg2SnCSn2CSnTe4Mg2SnCSn2CSnTe4Mg2SnCSn2CSnTe4Mg2SnCSn2CSnTe4Mg2SnCSn2CSnTe4Mg2SnCSn2CSnTe4Mg2
_chemical_formula_sum              "C176 H88 N16 Sn48 Te48 Mg24"
_cell_length_a       31.8451
_cell_length_b       36.193
_cell_length_c       8.12167
_cell_angle_alpha    90.5219
_cell_angle_beta     90.1528
_cell_angle_gamma    89.9837

_symmetry_space_group_name_H-M    'P1'
_space_group_IT_number       1

loop_
  _space_group_symop_operation_xyz
  'x, y, z'

loop_
  _atom_site_type_symbol
  _atom_site_label
  _atom_site_symmetry_multiplicity
  _atom_site_fract_x
  _atom_site_fract_y
  _atom_site_fract_z
  _atom_site_occupancy
  C   C1        1.0  0.54737  0.53502  0.89354  1.0000
  C   C2        1.0  0.48122  0.56850  0.86471  1.0000
  C   C3        1.0  0.41267  0.53562  0.90204  1.0000
  C   C4        1.0  0.38674  0.56942  0.91286  1.0000
  C   C5        1.0  0.34705  0.56995  0.83561  1.0000
  C   C6        1.0  0.32095  0.60059  0.84620  1.0000
  C   C7        1.0  0.33319  0.63245  0.93462  1.0000
  C   C8        1.0  0.37299  0.63234  0.01143  1.0000
  C   C9        1.0  0.39886  0.60139  0.00166  1.0000
  H   H1        1.0  0.46473  0.59425  0.84259  1.0000
  H   H2        1.0  0.33740  0.54633  0.76092  1.0000
  H   H3        1.0  0.29079  0.60102  0.78313  1.0000
  H   H4        1.0  0.38359  0.65636  0.08147  1.0000
  H   H5        1.0  0.42855  0.60141  0.06816  1.0000
  C   C10       1.0  0.22160  0.78037  0.01734  1.0000
  C   C11       1.0  0.21280  0.74729  0.93083  1.0000
  C   C12       1.0  0.23997  0.71736  0.93855  1.0000
  C   C13       1.0  0.27713  0.71964  0.03272  1.0000
  C   C14       1.0  0.28574  0.75259  0.12075  1.0000
  C   C15       1.0  0.25854  0.78251  0.11290  1.0000
  H   H6        1.0  0.18437  0.74546  0.85642  1.0000
  H   H7        1.0  0.23356  0.69192  0.87084  1.0000
  H   H8        1.0  0.31417  0.75444  0.19525  1.0000
  H   H9        1.0  0.26497  0.80803  0.17992  1.0000
  C   C16       1.0  0.19283  0.81162  0.00461  1.0000
  N   N1        1.0  0.19502  0.83935  0.10594  1.0000
  H   H10       1.0  0.84032  0.19821  0.96272  1.0000
  C   C17       1.0  0.95540  0.03552  0.11830  1.0000
  C   C18       1.0  0.02148  0.06917  0.14464  1.0000
  C   C19       1.0  0.09005  0.03640  0.10237  1.0000
  H   H11       1.0  0.03800  0.09497  0.16670  1.0000
  C   C20       1.0  0.30841  0.31376  0.02512  1.0000
  N   N2        1.0  0.30503  0.34076  0.92231  1.0000
  H   H12       1.0  0.67180  0.69250  0.11628  1.0000
  C   C21       1.0  0.45683  0.46685  0.88330  1.0000
  C   C22       1.0  0.52309  0.43328  0.86520  1.0000
  C   C23       1.0  0.59106  0.46626  0.91161  1.0000
  C   C24       1.0  0.61645  0.43229  0.92227  1.0000
  C   C25       1.0  0.65550  0.43062  0.84157  1.0000
  C   C26       1.0  0.68098  0.39965  0.85351  1.0000
  C   C27       1.0  0.66857  0.36888  0.94626  1.0000
  C   C28       1.0  0.62958  0.37042  0.02819  1.0000
  C   C29       1.0  0.60425  0.40156  0.01644  1.0000
  H   H13       1.0  0.53987  0.40744  0.84716  1.0000
  H   H14       1.0  0.66519  0.45359  0.76502  1.0000
  H   H15       1.0  0.71087  0.39804  0.78936  1.0000
  H   H16       1.0  0.61975  0.34791  0.10713  1.0000
  H   H17       1.0  0.57534  0.40304  0.08722  1.0000
  C   C30       1.0  0.80980  0.19141  0.01791  1.0000
  N   N3        1.0  0.80164  0.15977  0.08347  1.0000
  H   H18       1.0  0.17014  0.81015  0.90240  1.0000
  C   C31       1.0  0.04605  0.96750  0.11654  1.0000
  C   C32       1.0  0.97986  0.93399  0.14178  1.0000
  C   C33       1.0  0.91157  0.96685  0.10006  1.0000
  H   H19       1.0  0.96321  0.90829  0.16334  1.0000
  C   C34       1.0  0.69767  0.68835  0.02860  1.0000
  N   N4        1.0  0.70164  0.65916  0.93674  1.0000
  H   H20       1.0  0.33290  0.31250  0.12050  1.0000
  C   C35       1.0  0.54666  0.46630  0.89294  1.0000
  C   C36       1.0  0.48022  0.43358  0.85919  1.0000
  C   C37       1.0  0.41229  0.46735  0.89667  1.0000
  H   H21       1.0  0.46334  0.40806  0.83439  1.0000
  C   C38       1.0  0.19445  0.19097  0.99539  1.0000
  N   N5        1.0  0.19626  0.16415  0.09948  1.0000
  H   H22       1.0  0.84160  0.80439  0.91312  1.0000
  C   C39       1.0  0.95609  0.96691  0.11600  1.0000
  C   C40       1.0  0.02278  0.93430  0.14202  1.0000
  C   C41       1.0  0.09055  0.96806  0.10083  1.0000
  H   H23       1.0  0.03984  0.90884  0.16417  1.0000
  C   C42       1.0  0.30675  0.68887  0.03882  1.0000
  N   N6        1.0  0.30457  0.66190  0.93337  1.0000
  H   H24       1.0  0.65928  0.30274  0.08223  1.0000
  C   C43       1.0  0.45724  0.53562  0.88766  1.0000
  C   C44       1.0  0.52416  0.56825  0.86814  1.0000
  C   C45       1.0  0.59188  0.53438  0.91063  1.0000
  H   H25       1.0  0.54126  0.59382  0.84952  1.0000
  C   C46       1.0  0.78427  0.77815  0.99875  1.0000
  C   C47       1.0  0.79435  0.74358  0.92736  1.0000
  C   C48       1.0  0.76656  0.71415  0.93692  1.0000
  C   C49       1.0  0.72788  0.71845  0.01887  1.0000
  C   C50       1.0  0.71799  0.75294  0.09101  1.0000
  C   C51       1.0  0.74548  0.78246  0.07971  1.0000
  H   H26       1.0  0.82431  0.74016  0.86462  1.0000
  H   H27       1.0  0.77370  0.68739  0.88167  1.0000
  H   H28       1.0  0.68839  0.75618  0.15651  1.0000
  H   H29       1.0  0.73832  0.80922  0.13485  1.0000
  C   C52       1.0  0.81392  0.80868  0.99148  1.0000
  N   N7        1.0  0.80731  0.83864  0.07584  1.0000
  H   H30       1.0  0.17174  0.19172  0.89320  1.0000
  C   C53       1.0  0.04548  0.03632  0.11763  1.0000
  C   C54       1.0  0.97854  0.06884  0.14496  1.0000
  C   C55       1.0  0.91087  0.03486  0.10371  1.0000
  C   C56       1.0  0.88470  0.06845  0.09861  1.0000
  C   C57       1.0  0.84644  0.06939  0.18509  1.0000
  C   C58       1.0  0.82011  0.09992  0.17767  1.0000
  C   C59       1.0  0.83097  0.13100  0.08396  1.0000
  C   C60       1.0  0.86928  0.13024  0.99700  1.0000
  C   C61       1.0  0.89542  0.09956  0.00425  1.0000
  H   H31       1.0  0.96139  0.09431  0.16794  1.0000
  H   H32       1.0  0.83812  0.04626  0.26313  1.0000
  H   H33       1.0  0.79090  0.10094  0.24668  1.0000
  H   H34       1.0  0.87792  0.15303  0.91769  1.0000
  H   H35       1.0  0.92375  0.09869  0.92985  1.0000
  C   C62       1.0  0.68932  0.30874  0.02157  1.0000
  N   N8        1.0  0.69733  0.33970  0.94973  1.0000
  H   H36       1.0  0.33036  0.69012  0.13776  1.0000
  C   C63       1.0  0.39195  0.50153  0.90862  1.0000
  C   C64       1.0  0.52454  0.50083  0.89213  1.0000
  H   H37       1.0  0.35824  0.50158  0.92943  1.0000
  C   C65       1.0  0.61204  0.50014  0.92100  1.0000
  C   C66       1.0  0.47948  0.50111  0.88831  1.0000
  H   H38       1.0  0.64576  0.49985  0.94230  1.0000
  C   C67       1.0  0.11078  0.00231  0.09189  1.0000
  C   C68       1.0  0.97829  0.00140  0.11570  1.0000
  H   H39       1.0  0.14450  0.00238  0.07148  1.0000
  C   C69       1.0  0.89051  0.00070  0.09226  1.0000
  C   C70       1.0  0.02336  0.00175  0.11569  1.0000
  H   H40       1.0  0.85673  0.00045  0.07157  1.0000
  C   C71       1.0  0.54354  0.53353  0.39860  1.0000
  C   C72       1.0  0.47727  0.56612  0.36036  1.0000
  C   C73       1.0  0.40926  0.53238  0.39210  1.0000
  C   C74       1.0  0.38345  0.56620  0.40236  1.0000
  C   C75       1.0  0.34484  0.56794  0.31782  1.0000
  C   C76       1.0  0.31919  0.59888  0.33052  1.0000
  C   C77       1.0  0.33083  0.62951  0.42857  1.0000
  C   C78       1.0  0.36957  0.62802  0.51299  1.0000
  C   C79       1.0  0.39510  0.59698  0.50013  1.0000
  H   H41       1.0  0.46038  0.59159  0.33629  1.0000
  H   H42       1.0  0.33568  0.54509  0.23752  1.0000
  H   H43       1.0  0.28980  0.60047  0.26253  1.0000
  H   H44       1.0  0.37922  0.65068  0.59339  1.0000
  H   H45       1.0  0.42393  0.59578  0.57197  1.0000
  C   C80       1.0  0.21909  0.77674  0.51170  1.0000
  C   C81       1.0  0.20999  0.74298  0.43123  1.0000
  C   C82       1.0  0.23801  0.71370  0.43731  1.0000
  C   C83       1.0  0.27612  0.71729  0.52469  1.0000
  C   C84       1.0  0.28505  0.75092  0.60656  1.0000
  C   C85       1.0  0.25716  0.78030  0.59935  1.0000
  H   H46       1.0  0.18086  0.74028  0.36161  1.0000
  H   H47       1.0  0.23186  0.68775  0.37318  1.0000
  H   H48       1.0  0.31412  0.75366  0.67655  1.0000
  H   H49       1.0  0.26364  0.80644  0.66133  1.0000
  C   C86       1.0  0.18928  0.80716  0.50248  1.0000
  N   N9        1.0  0.19438  0.83673  0.59124  1.0000
  H   H50       1.0  0.82901  0.18984  0.39558  1.0000
  C   C87       1.0  0.95503  0.03360  0.61493  1.0000
  C   C88       1.0  0.02145  0.06618  0.65196  1.0000
  C   C89       1.0  0.08934  0.03278  0.60738  1.0000
  C   C90       1.0  0.11492  0.06671  0.60234  1.0000
  C   C91       1.0  0.15365  0.06815  0.68619  1.0000
  C   C92       1.0  0.17870  0.09955  0.68178  1.0000
  C   C93       1.0  0.16643  0.13086  0.59207  1.0000
  C   C94       1.0  0.12760  0.12962  0.50803  1.0000
  C   C95       1.0  0.10266  0.09813  0.51271  1.0000
  H   H51       1.0  0.03839  0.09152  0.68004  1.0000
  H   H52       1.0  0.16329  0.04474  0.76043  1.0000
  H   H53       1.0  0.20806  0.10099  0.75021  1.0000
  H   H54       1.0  0.11714  0.15301  0.43541  1.0000
  H   H55       1.0  0.07374  0.09711  0.44123  1.0000
  C   C96       1.0  0.30425  0.31156  0.52233  1.0000
  N   N10       1.0  0.30189  0.33794  0.41620  1.0000
  H   H56       1.0  0.66679  0.69045  0.65275  1.0000
  C   C97       1.0  0.45432  0.46414  0.38017  1.0000
  C   C98       1.0  0.52137  0.43159  0.36446  1.0000
  C   C99       1.0  0.58852  0.46547  0.42120  1.0000
  H   H57       1.0  0.53869  0.40608  0.34513  1.0000
  C   C100      1.0  0.80644  0.18870  0.49781  1.0000
  N   N11       1.0  0.80470  0.16137  0.59921  1.0000
  H   H58       1.0  0.16292  0.80326  0.41634  1.0000
  C   C101      1.0  0.04462  0.96444  0.61600  1.0000
  C   C102      1.0  0.97784  0.93172  0.63712  1.0000
  C   C103      1.0  0.91017  0.96546  0.59039  1.0000
  C   C104      1.0  0.88380  0.93194  0.58636  1.0000
  C   C105      1.0  0.84492  0.93248  0.66888  1.0000
  C   C106      1.0  0.81905  0.90165  0.67101  1.0000
  C   C107      1.0  0.83060  0.86881  0.58880  1.0000
  C   C108      1.0  0.86933  0.86805  0.50501  1.0000
  C   C109      1.0  0.89513  0.89908  0.50325  1.0000
  H   H59       1.0  0.96084  0.90618  0.65763  1.0000
  H   H60       1.0  0.83597  0.95709  0.73824  1.0000
  H   H61       1.0  0.78974  0.90185  0.73934  1.0000
  H   H62       1.0  0.87914  0.84317  0.43956  1.0000
  H   H63       1.0  0.92402  0.89841  0.43214  1.0000
  C   C110      1.0  0.68999  0.68910  0.55286  1.0000
  N   N12       1.0  0.69228  0.66182  0.44910  1.0000
  H   H64       1.0  0.32787  0.31098  0.62128  1.0000
  C   C111      1.0  0.54427  0.46483  0.39617  1.0000
  C   C112      1.0  0.47847  0.43125  0.35690  1.0000
  C   C113      1.0  0.40970  0.46416  0.39106  1.0000
  C   C114      1.0  0.38384  0.43037  0.39862  1.0000
  C   C115      1.0  0.34454  0.42944  0.31837  1.0000
  C   C116      1.0  0.31853  0.39874  0.32724  1.0000
  C   C117      1.0  0.33052  0.36738  0.41710  1.0000
  C   C118      1.0  0.37004  0.36783  0.49599  1.0000
  C   C119      1.0  0.39576  0.39883  0.48817  1.0000
  H   H65       1.0  0.46221  0.40545  0.33127  1.0000
  H   H66       1.0  0.33508  0.45273  0.24311  1.0000
  H   H67       1.0  0.28867  0.39786  0.26203  1.0000
  H   H68       1.0  0.38052  0.34407  0.56607  1.0000
  H   H69       1.0  0.42509  0.39921  0.55699  1.0000
  C   C120      1.0  0.19057  0.18858  0.49898  1.0000
  N   N13       1.0  0.19441  0.16079  0.59718  1.0000
  H   H70       1.0  0.82231  0.81190  0.38609  1.0000
  C   C121      1.0  0.95459  0.96488  0.60994  1.0000
  C   C122      1.0  0.02077  0.93152  0.64017  1.0000
  C   C123      1.0  0.08917  0.96462  0.60136  1.0000
  H   H71       1.0  0.03736  0.90587  0.66332  1.0000
  C   C124      1.0  0.30649  0.68720  0.52854  1.0000
  N   N14       1.0  0.30217  0.65885  0.43159  1.0000
  H   H72       1.0  0.67146  0.31169  0.64689  1.0000
  C   C125      1.0  0.45382  0.53288  0.38153  1.0000
  C   C126      1.0  0.52013  0.56644  0.36842  1.0000
  C   C127      1.0  0.58771  0.53363  0.42450  1.0000
  C   C128      1.0  0.61302  0.56773  0.43603  1.0000
  C   C129      1.0  0.65235  0.56883  0.35741  1.0000
  C   C130      1.0  0.67746  0.60014  0.36524  1.0000
  C   C131      1.0  0.66461  0.63181  0.45337  1.0000
  C   C132      1.0  0.62519  0.63104  0.53223  1.0000
  C   C133      1.0  0.60018  0.59955  0.52397  1.0000
  H   H73       1.0  0.53704  0.59215  0.35067  1.0000
  H   H74       1.0  0.66237  0.54517  0.28399  1.0000
  H   H75       1.0  0.70723  0.60129  0.30012  1.0000
  H   H76       1.0  0.61426  0.65498  0.60189  1.0000
  H   H77       1.0  0.57055  0.59903  0.59014  1.0000
  C   C134      1.0  0.80225  0.81231  0.49635  1.0000
  N   N15       1.0  0.80281  0.83902  0.60311  1.0000
  H   H78       1.0  0.16559  0.19062  0.40584  1.0000
  C   C135      1.0  0.04485  0.03313  0.62225  1.0000
  C   C136      1.0  0.97856  0.06641  0.64821  1.0000
  C   C137      1.0  0.91066  0.03368  0.59359  1.0000
  C   C138      1.0  0.88491  0.06761  0.59007  1.0000
  C   C139      1.0  0.84540  0.06779  0.66802  1.0000
  C   C140      1.0  0.81989  0.09890  0.66749  1.0000
  C   C141      1.0  0.83253  0.13147  0.58808  1.0000
  C   C142      1.0  0.87203  0.13160  0.50968  1.0000
  C   C143      1.0  0.89737  0.10025  0.51011  1.0000
  H   H79       1.0  0.96171  0.09197  0.67246  1.0000
  H   H80       1.0  0.83553  0.04352  0.73582  1.0000
  H   H81       1.0  0.79005  0.09925  0.73234  1.0000
  H   H82       1.0  0.88289  0.15616  0.44630  1.0000
  H   H83       1.0  0.92688  0.10049  0.44305  1.0000
  C   C144      1.0  0.69324  0.31179  0.54199  1.0000
  N   N16       1.0  0.69448  0.33814  0.43565  1.0000
  H   H84       1.0  0.33252  0.69045  0.61669  1.0000
  C   C145      1.0  0.38886  0.49822  0.39885  1.0000
  C   C146      1.0  0.52146  0.49899  0.39394  1.0000
  H   H85       1.0  0.35504  0.49818  0.41663  1.0000
  C   C147      1.0  0.60852  0.49972  0.43792  1.0000
  C   C148      1.0  0.47648  0.49865  0.38534  1.0000
  H   H86       1.0  0.64192  0.50006  0.46616  1.0000
  C   C149      1.0  0.10985  0.99871  0.59499  1.0000
  C   C150      1.0  0.97727  0.99911  0.61239  1.0000
  H   H87       1.0  0.14359  0.99875  0.57489  1.0000
  C   C151      1.0  0.89000  0.99969  0.57831  1.0000
  C   C152      1.0  0.02230  0.99888  0.61592  1.0000
  H   H88       1.0  0.85644  0.99987  0.55338  1.0000
  C  Sn1       1.0  0.12948  0.88177  0.95906  1.0000
  C   C153      1.0  0.16601  0.87339  0.04591  1.0000
  C  Sn2       1.0  0.17811  0.89709  0.17418  1.0000
  C  Sn3       1.0  0.15246  0.92776  0.21662  1.0000
  C   C154      1.0  0.11527  0.93408  0.12982  1.0000
  C  Sn4       1.0  0.10315  0.91040  0.00150  1.0000
  O  Te1       1.0  0.11800  0.85772  0.83128  1.0000
  O  Te2       1.0  0.21546  0.89020  0.25918  1.0000
  O  Te3       1.0  0.16397  0.95182  0.34452  1.0000
  O  Te4       1.0  0.06650  0.91932  0.91654  1.0000
  Mg  Mg1       1.0  0.21767  0.93084  0.42381  1.0000
  Mg  Mg2       1.0  0.06425  0.87869  0.75196  1.0000
  C  Sn5       1.0  0.33403  0.43157  0.85869  1.0000
  C   C155      1.0  0.37400  0.43674  0.92644  1.0000
  C  Sn6       1.0  0.39684  0.40667  0.98556  1.0000
  C  Sn7       1.0  0.37937  0.37066  0.97669  1.0000
  C   C156      1.0  0.33942  0.36550  0.90894  1.0000
  C  Sn8       1.0  0.31656  0.39556  0.84981  1.0000
  O  Te5       1.0  0.31176  0.46203  0.80033  1.0000
  O  Te6       1.0  0.43606  0.41049  0.05282  1.0000
  O  Te7       1.0  0.40099  0.33815  0.03512  1.0000
  O  Te8       1.0  0.27668  0.38970  0.78257  1.0000
  Mg  Mg3       1.0  0.45414  0.36022  0.11586  1.0000
  Mg  Mg4       1.0  0.25859  0.43996  0.71942  1.0000
  C  Sn9       1.0  0.76923  0.71919  0.46524  1.0000
  C   C157      1.0  0.73302  0.71658  0.56124  1.0000
  C  Sn10      1.0  0.71417  0.74838  0.62590  1.0000
  C  Sn11      1.0  0.73188  0.78353  0.59386  1.0000
  C   C158      1.0  0.76807  0.78613  0.49789  1.0000
  C  Sn12      1.0  0.78694  0.75434  0.43320  1.0000
  O  Te9       1.0  0.78754  0.68702  0.40185  1.0000
  O  Te10      1.0  0.67799  0.74507  0.72156  1.0000
  O  Te11      1.0  0.71353  0.81571  0.65735  1.0000
  O  Te12      1.0  0.82309  0.75764  0.33756  1.0000
  Mg  Mg5       1.0  0.66454  0.79693  0.78050  1.0000
  Mg  Mg6       1.0  0.83655  0.70580  0.27849  1.0000
  C  Sn13      1.0  0.68185  0.41197  0.39033  1.0000
  C   C159      1.0  0.67382  0.37844  0.46823  1.0000
  C  Sn14      1.0  0.63320  0.36969  0.51943  1.0000
  C  Sn15      1.0  0.59992  0.39497  0.49211  1.0000
  C   C160      1.0  0.60795  0.42847  0.41423  1.0000
  C  Sn16      1.0  0.64856  0.43724  0.36302  1.0000
  O  Te13      1.0  0.72269  0.42014  0.34018  1.0000
  O  Te14      1.0  0.62595  0.33601  0.59709  1.0000
  O  Te15      1.0  0.55905  0.38677  0.54235  1.0000
  O  Te16      1.0  0.65582  0.47090  0.28537  1.0000
  Mg  Mg7       1.0  0.56493  0.33741  0.64287  1.0000
  Mg  Mg8       1.0  0.71682  0.46951  0.23946  1.0000
  C  Sn17      1.0  0.26219  0.22918  0.14816  1.0000
  C   C161      1.0  0.22495  0.22607  0.05765  1.0000
  C  Sn18      1.0  0.21672  0.25299  0.93176  1.0000
  C  Sn19      1.0  0.24565  0.28155  0.89550  1.0000
  C   C162      1.0  0.28286  0.28465  0.98595  1.0000
  C  Sn20      1.0  0.29111  0.25775  0.11189  1.0000
  O  Te17      1.0  0.27045  0.20401  0.27347  1.0000
  O  Te18      1.0  0.17929  0.24933  0.84301  1.0000
  O  Te19      1.0  0.23735  0.30673  0.77007  1.0000
  O  Te20      1.0  0.32853  0.26140  0.20059  1.0000
  Mg  Mg9       1.0  0.18216  0.29035  0.68386  1.0000
  Mg  Mg10      1.0  0.32570  0.22038  0.35971  1.0000
  C  Sn21      1.0  0.78735  0.26388  0.44851  1.0000
  C   C163      1.0  0.78463  0.22999  0.52889  1.0000
  C  Sn22      1.0  0.74712  0.21921  0.60315  1.0000
  C  Sn23      1.0  0.71157  0.24277  0.59685  1.0000
  C   C164      1.0  0.71430  0.27664  0.51648  1.0000
  C  Sn24      1.0  0.75180  0.28745  0.44221  1.0000
  O  Te21      1.0  0.82516  0.27410  0.37512  1.0000
  O  Te22      1.0  0.74517  0.18520  0.68284  1.0000
  O  Te23      1.0  0.67374  0.23253  0.67033  1.0000
  O  Te24      1.0  0.75376  0.32143  0.36253  1.0000
  Mg  Mg11      1.0  0.68666  0.18353  0.76422  1.0000
  Mg  Mg12      1.0  0.81224  0.32311  0.28105  1.0000
  C  Sn25      1.0  0.11553  0.13229  0.04670  1.0000
  C   C165      1.0  0.15487  0.13752  0.11989  1.0000
  C  Sn26      1.0  0.17832  0.10725  0.17309  1.0000
  C  Sn27      1.0  0.16213  0.07099  0.15261  1.0000
  C   C166      1.0  0.12281  0.06578  0.07943  1.0000
  C  Sn28      1.0  0.09933  0.09603  0.02622  1.0000
  O  Te25      1.0  0.09331  0.16500  0.99443  1.0000
  O  Te26      1.0  0.21757  0.11317  0.24596  1.0000
  O  Te27      1.0  0.18507  0.04032  0.20495  1.0000
  O  Te28      1.0  0.06079  0.09217  0.95335  1.0000
  Mg  Mg13      1.0  0.23692  0.06255  0.29708  1.0000
  Mg  Mg14      1.0  0.04142  0.14276  0.90212  1.0000
  C  Sn29      1.0  0.81977  0.91189  0.13596  1.0000
  C   C167      1.0  0.82756  0.87900  0.04984  1.0000
  C  Sn30      1.0  0.86849  0.87310  0.99144  1.0000
  C  Sn31      1.0  0.90098  0.89649  0.01979  1.0000
  C   C168      1.0  0.89318  0.92935  0.10588  1.0000
  C  Sn32      1.0  0.85294  0.93733  0.16431  1.0000
  O  Te29      1.0  0.77929  0.91927  0.19323  1.0000
  O  Te30      1.0  0.87551  0.84005  0.90562  1.0000
  O  Te31      1.0  0.94216  0.89114  0.96243  1.0000
  O  Te32      1.0  0.84591  0.97036  0.25010  1.0000
  Mg  Mg15      1.0  0.93606  0.84243  0.85213  1.0000
  Mg  Mg16      1.0  0.78538  0.96799  0.30372  1.0000
  C  Sn33      1.0  0.16729  0.92848  0.63796  1.0000
  C   C169      1.0  0.12756  0.93362  0.56829  1.0000
  C  Sn34      1.0  0.10416  0.90333  0.51261  1.0000
  C  Sn35      1.0  0.12080  0.86714  0.52696  1.0000
  C   C170      1.0  0.16049  0.86201  0.59661  1.0000
  C  Sn36      1.0  0.18392  0.89229  0.65230  1.0000
  O  Te33      1.0  0.19013  0.95916  0.69280  1.0000
  O  Te34      1.0  0.06452  0.90916  0.44335  1.0000
  O  Te35      1.0  0.09792  0.83645  0.47204  1.0000
  O  Te36      1.0  0.22353  0.88647  0.72155  1.0000
  Mg  Mg17      1.0  0.04543  0.85855  0.38667  1.0000
  Mg  Mg18      1.0  0.24264  0.93705  0.77835  1.0000
  C  Sn37      1.0  0.76545  0.27748  0.90997  1.0000
  C   C171      1.0  0.72431  0.27677  0.96928  1.0000
  C  Sn38      1.0  0.71023  0.24593  0.06971  1.0000
  C  Sn39      1.0  0.73855  0.21725  0.11185  1.0000
  C   C172      1.0  0.77967  0.21798  0.05258  1.0000
  C  Sn40      1.0  0.79377  0.24881  0.95211  1.0000
  O  Te37      1.0  0.77817  0.30654  0.80975  1.0000
  O  Te38      1.0  0.66894  0.24581  0.12746  1.0000
  O  Te39      1.0  0.72579  0.18818  0.21215  1.0000
  O  Te40      1.0  0.83504  0.24894  0.89440  1.0000
  Mg  Mg19      1.0  0.66644  0.20028  0.26037  1.0000
  Mg  Mg20      1.0  0.83757  0.29446  0.76156  1.0000
  C  Sn41      1.0  0.67453  0.59525  0.79871  1.0000
  C   C173      1.0  0.66891  0.62773  0.89038  1.0000
  C  Sn42      1.0  0.63805  0.62740  0.01469  1.0000
  C  Sn43      1.0  0.61297  0.59599  0.04816  1.0000
  C   C174      1.0  0.61928  0.56557  0.95655  1.0000
  C  Sn44      1.0  0.64946  0.56383  0.83218  1.0000
  O  Te41      1.0  0.70490  0.59416  0.67502  1.0000
  O  Te42      1.0  0.63300  0.66018  0.10464  1.0000
  O  Te43      1.0  0.58259  0.59710  0.17197  1.0000
  O  Te44      1.0  0.65452  0.53107  0.74228  1.0000
  Mg  Mg21      1.0  0.58751  0.64803  0.26075  1.0000
  Mg  Mg22      1.0  0.70001  0.54318  0.58621  1.0000
  C  Sn45      1.0  0.28671  0.23622  0.56765  1.0000
  C   C175      1.0  0.28154  0.27086  0.49568  1.0000
  C  Sn46      1.0  0.24227  0.28179  0.43652  1.0000
  C  Sn47      1.0  0.20743  0.25760  0.44966  1.0000
  C   C176      1.0  0.21260  0.22299  0.52162  1.0000
  C  Sn48      1.0  0.25187  0.21204  0.58079  1.0000
  O  Te45      1.0  0.32626  0.22588  0.62597  1.0000
  O  Te46      1.0  0.23788  0.31655  0.36500  1.0000
  O  Te47      1.0  0.16786  0.26798  0.39126  1.0000
  O  Te48      1.0  0.25626  0.17731  0.65230  1.0000
  Mg  Mg23      1.0  0.17768  0.31810  0.30383  1.0000
  Mg  Mg24      1.0  0.31644  0.17573  0.71359  1.0000
