data_image0
_chemical_formula_structural       C9H5C9H5C5HCNHC11H5CNHC3HC9H5C5HCNH2C11H5CNC2HC2HOCH3OCH3OCH3OCH3C3HC3HC11H5CNHC11H5CNHC3HC3HC11H5CNH2C5HCNC2HC2HOCH3OCH3OCH3OCH3C9H5C9H5C5HCNHC5HCNHC9H5C9H5C11H5CNH2C5HCNC2HC2HOCH3OCH3OCH3OCH3C9H5C3HC11H5CNHC11H5CNHC3HC3HC5HCNH2C5HCNC2HC2HOCH3OCH3OCH3OCH3SnCSn2CSnTe4Mg2SnCSn2CSnTe4Mg2SnCSn2CSnTe4Mg2SnCSn2CSnTe4Mg2SnCSn2CSnTe4Mg2SnCSn2CSnTe4Mg2SnCSn2CSnTe4Mg2SnCSn2CSnTe4Mg2SnCSn2CSnTe4Mg2SnCSn2CSnTe4Mg2SnCSn2CSnTe4Mg2SnCSn2CSnTe4Mg2SnCSn2CSnTe4Mg2SnCSn2CSnTe4Mg2SnCSn2CSnTe4Mg2SnCSn2CSnTe4Mg2
_chemical_formula_sum              "C304 H168 N16 O16 Sn64 Te64 Mg32"
_cell_length_a       48.9811
_cell_length_b       57.538
_cell_length_c       8.13899
_cell_angle_alpha    89.3298
_cell_angle_beta     90.304
_cell_angle_gamma    89.9267

_symmetry_space_group_name_H-M    'P1'
_space_group_IT_number       1

loop_
  _space_group_symop_operation_xyz
  'x, y, z'

loop_
  _atom_site_type_symbol
  _atom_site_label
  _atom_site_symmetry_multiplicity
  _atom_site_fract_x
  _atom_site_fract_y
  _atom_site_fract_z
  _atom_site_occupancy
  C   C1        1.0  0.27796  0.27262  0.02827  1.0000
  C   C2        1.0  0.23466  0.29338  0.00233  1.0000
  C   C3        1.0  0.19056  0.27236  0.04987  1.0000
  C   C4        1.0  0.17404  0.29380  0.05914  1.0000
  C   C5        1.0  0.14839  0.29492  0.98026  1.0000
  C   C6        1.0  0.13252  0.31493  0.98395  1.0000
  C   C7        1.0  0.14146  0.33483  0.06746  1.0000
  C   C8        1.0  0.16702  0.33382  0.14803  1.0000
  C   C9        1.0  0.18272  0.31367  0.14494  1.0000
  H   H1        1.0  0.22365  0.30951  0.98013  1.0000
  H   H2        1.0  0.14148  0.28021  0.90842  1.0000
  H   H3        1.0  0.11318  0.31592  0.91796  1.0000
  H   H4        1.0  0.17458  0.34882  0.21447  1.0000
  H   H5        1.0  0.20183  0.31304  0.21346  1.0000
  C   C10       1.0  0.77948  0.77187  0.96778  1.0000
  C   C11       1.0  0.73650  0.79291  0.99534  1.0000
  C   C12       1.0  0.69206  0.77236  0.94974  1.0000
  C   C13       1.0  0.67538  0.79377  0.94780  1.0000
  C   C14       1.0  0.68306  0.81435  0.86405  1.0000
  C   C15       1.0  0.66695  0.83427  0.86771  1.0000
  C   C16       1.0  0.64198  0.83438  0.95356  1.0000
  C   C17       1.0  0.63405  0.81375  0.03467  1.0000
  C   C18       1.0  0.65031  0.79398  0.03174  1.0000
  H   H6        1.0  0.72576  0.80904  0.01883  1.0000
  H   H7        1.0  0.70163  0.81441  0.79134  1.0000
  H   H8        1.0  0.67365  0.84971  0.80093  1.0000
  H   H9        1.0  0.61514  0.81399  0.10400  1.0000
  H   H10       1.0  0.64418  0.77865  0.10166  1.0000
  C   C19       1.0  0.94434  0.55187  0.93171  1.0000
  C   C20       1.0  0.95967  0.53508  0.94059  1.0000
  C   C21       1.0  0.97933  0.51738  0.96408  1.0000
  C   C22       1.0  0.00333  0.52370  0.04953  1.0000
  C   C23       1.0  0.02437  0.50826  0.08784  1.0000
  H   H11       1.0  0.99540  0.46044  0.91407  1.0000
  C   C24       1.0  0.87232  0.62919  0.86427  1.0000
  N   N1        1.0  0.87493  0.64714  0.95754  1.0000
  H   H12       1.0  0.64373  0.87525  0.79816  1.0000
  C   C25       1.0  0.60856  0.89192  0.90800  1.0000
  C   C26       1.0  0.61448  0.91365  0.83496  1.0000
  C   C27       1.0  0.59700  0.93248  0.85273  1.0000
  C   C28       1.0  0.57256  0.93005  0.94267  1.0000
  C   C29       1.0  0.56661  0.90815  0.01602  1.0000
  C   C30       1.0  0.58428  0.88954  0.99908  1.0000
  C   C31       1.0  0.55399  0.94862  0.95853  1.0000
  C   C32       1.0  0.53633  0.96349  0.97585  1.0000
  C   C33       1.0  0.51710  0.98171  0.98511  1.0000
  C   C34       1.0  0.49159  0.98041  0.06796  1.0000
  C   C35       1.0  0.47511  0.00019  0.07267  1.0000
  H   H13       1.0  0.63288  0.91555  0.76155  1.0000
  H   H14       1.0  0.60164  0.94911  0.79474  1.0000
  H   H15       1.0  0.54800  0.90626  0.08727  1.0000
  H   H16       1.0  0.57989  0.87274  0.05552  1.0000
  H   H17       1.0  0.54257  0.00387  0.83516  1.0000
  C   C36       1.0  0.62725  0.87246  0.88751  1.0000
  N   N2        1.0  0.62417  0.85328  0.97010  1.0000
  H   H18       1.0  0.85680  0.62790  0.76667  1.0000
  C   C37       1.0  0.27806  0.22941  0.03121  1.0000
  C   C38       1.0  0.23492  0.20867  0.00195  1.0000
  C   C39       1.0  0.19065  0.22943  0.04763  1.0000
  H   H19       1.0  0.22405  0.19263  0.97773  1.0000
  C   C40       1.0  0.77922  0.72869  0.96901  1.0000
  C   C41       1.0  0.73586  0.70819  0.99557  1.0000
  C   C42       1.0  0.69178  0.72943  0.94790  1.0000
  C   C43       1.0  0.67502  0.70813  0.94200  1.0000
  C   C44       1.0  0.68305  0.68803  0.85714  1.0000
  C   C45       1.0  0.66714  0.66800  0.85834  1.0000
  C   C46       1.0  0.64214  0.66731  0.94349  1.0000
  C   C47       1.0  0.63378  0.68751  0.02535  1.0000
  C   C48       1.0  0.64977  0.70743  0.02410  1.0000
  H   H20       1.0  0.72476  0.69218  0.01911  1.0000
  H   H21       1.0  0.70179  0.68841  0.78608  1.0000
  H   H22       1.0  0.67416  0.65284  0.79194  1.0000
  H   H23       1.0  0.61482  0.68682  0.09406  1.0000
  H   H24       1.0  0.64334  0.72243  0.09420  1.0000
  C   C49       1.0  0.94759  0.94602  0.96172  1.0000
  C   C50       1.0  0.96493  0.96078  0.99041  1.0000
  C   C51       1.0  0.98384  0.97902  0.01215  1.0000
  C   C52       1.0  0.00935  0.97713  0.09613  1.0000
  C   C53       1.0  0.02624  0.99657  0.10264  1.0000
  H   H25       1.0  0.95739  0.00265  0.87881  1.0000
  C   C54       1.0  0.87355  0.87098  0.87234  1.0000
  N   N3        1.0  0.87693  0.85173  0.95400  1.0000
  H   H26       1.0  0.64077  0.62941  0.75959  1.0000
  H   H27       1.0  0.85652  0.87413  0.78630  1.0000
  C   C55       1.0  0.60886  0.61014  0.88724  1.0000
  C   C56       1.0  0.61415  0.58927  0.80415  1.0000
  C   C57       1.0  0.59721  0.57008  0.82350  1.0000
  C   C58       1.0  0.57391  0.57138  0.92452  1.0000
  C   C59       1.0  0.56866  0.59238  0.00842  1.0000
  C   C60       1.0  0.58591  0.61126  0.99077  1.0000
  C   C61       1.0  0.55566  0.55255  0.94147  1.0000
  C   C62       1.0  0.53819  0.53754  0.95908  1.0000
  C   C63       1.0  0.51907  0.51932  0.97482  1.0000
  C   C64       1.0  0.49210  0.52213  0.03591  1.0000
  C   C65       1.0  0.47513  0.50279  0.04485  1.0000
  H   H28       1.0  0.63166  0.58829  0.72267  1.0000
  H   H29       1.0  0.60126  0.55412  0.75770  1.0000
  H   H30       1.0  0.55096  0.59338  0.08813  1.0000
  H   H31       1.0  0.58218  0.62736  0.05581  1.0000
  H   H32       1.0  0.54740  0.49467  0.87368  1.0000
  C   C66       1.0  0.62664  0.63023  0.86404  1.0000
  N   N4        1.0  0.62504  0.64794  0.96025  1.0000
  C   C67       1.0  0.17725  0.25086  0.06000  1.0000
  C   C68       1.0  0.26339  0.25101  0.03127  1.0000
  H   H33       1.0  0.15538  0.25078  0.08262  1.0000
  C   C69       1.0  0.32028  0.25102  0.05855  1.0000
  C   C70       1.0  0.23410  0.25097  0.03148  1.0000
  H   H34       1.0  0.34218  0.25106  0.08115  1.0000
  O   O1        1.0  0.04603  0.51842  0.16668  1.0000
  C   C71       1.0  0.06890  0.50472  0.22215  1.0000
  H   H35       1.0  0.08186  0.51687  0.28963  1.0000
  H   H36       1.0  0.06243  0.49058  0.30457  1.0000
  H   H37       1.0  0.08013  0.49752  0.11796  1.0000
  O   O2        1.0  0.48003  0.54251  0.08284  1.0000
  C   C72       1.0  0.49605  0.56144  0.14507  1.0000
  H   H38       1.0  0.48181  0.57143  0.22016  1.0000
  H   H39       1.0  0.51314  0.55527  0.22142  1.0000
  H   H40       1.0  0.50386  0.57242  0.04484  1.0000
  O   O3        1.0  0.48008  0.96150  0.14282  1.0000
  C   C73       1.0  0.49515  0.94038  0.17264  1.0000
  H   H41       1.0  0.48219  0.93027  0.25624  1.0000
  H   H42       1.0  0.49831  0.93086  0.05817  1.0000
  H   H43       1.0  0.51483  0.94379  0.23222  1.0000
  O   O4        1.0  0.02004  0.95802  0.17510  1.0000
  C   C74       1.0  0.00725  0.93564  0.16471  1.0000
  H   H44       1.0  0.02119  0.92388  0.23106  1.0000
  H   H45       1.0  0.98716  0.93562  0.22382  1.0000
  H   H46       1.0  0.00519  0.93008  0.03674  1.0000
  C   C75       1.0  0.72071  0.72908  0.96634  1.0000
  C   C76       1.0  0.76377  0.70799  0.99693  1.0000
  C   C77       1.0  0.80815  0.72869  0.95294  1.0000
  H   H47       1.0  0.77460  0.69182  0.02139  1.0000
  C   C78       1.0  0.21955  0.22935  0.03020  1.0000
  C   C79       1.0  0.26283  0.20869  0.00287  1.0000
  C   C80       1.0  0.30697  0.22956  0.04975  1.0000
  H   H48       1.0  0.27379  0.19266  0.97942  1.0000
  C   C81       1.0  0.10866  0.39180  0.13629  1.0000
  C   C82       1.0  0.11456  0.41271  0.21748  1.0000
  C   C83       1.0  0.09753  0.43193  0.19981  1.0000
  C   C84       1.0  0.07367  0.43068  0.10179  1.0000
  C   C85       1.0  0.06778  0.40960  0.02032  1.0000
  C   C86       1.0  0.08506  0.39067  0.03668  1.0000
  C   C87       1.0  0.05588  0.44984  0.08420  1.0000
  C   C88       1.0  0.04072  0.46669  0.06971  1.0000
  C   C89       1.0  0.02151  0.48460  0.04037  1.0000
  C   C90       1.0  0.99766  0.47835  0.95283  1.0000
  C   C91       1.0  0.97674  0.49386  0.91341  1.0000
  H   H49       1.0  0.13262  0.41377  0.29561  1.0000
  H   H50       1.0  0.10208  0.44792  0.26414  1.0000
  H   H51       1.0  0.04961  0.40865  0.94333  1.0000
  H   H52       1.0  0.08090  0.37452  0.97311  1.0000
  H   H53       1.0  0.00541  0.54160  0.08866  1.0000
  C   C92       1.0  0.12659  0.37169  0.15502  1.0000
  N   N5        1.0  0.12429  0.35425  0.05677  1.0000
  H   H54       1.0  0.36093  0.12983  0.25192  1.0000
  C   C93       1.0  0.39293  0.11157  0.11789  1.0000
  C   C94       1.0  0.38869  0.09001  0.19741  1.0000
  C   C95       1.0  0.40574  0.07119  0.16756  1.0000
  C   C96       1.0  0.42810  0.07359  0.05974  1.0000
  C   C97       1.0  0.43254  0.09540  0.98168  1.0000
  C   C98       1.0  0.41516  0.11388  0.00959  1.0000
  C   C99       1.0  0.44605  0.05492  0.03030  1.0000
  C   C100      1.0  0.46291  0.03971  0.00374  1.0000
  C   C101      1.0  0.48162  0.02115  0.99073  1.0000
  C   C102      1.0  0.50649  0.02214  0.90084  1.0000
  C   C103      1.0  0.52357  0.00284  0.90300  1.0000
  H   H55       1.0  0.37191  0.08805  0.28361  1.0000
  H   H56       1.0  0.40234  0.05457  0.22896  1.0000
  H   H57       1.0  0.44951  0.09733  0.89701  1.0000
  H   H58       1.0  0.41814  0.13051  0.94749  1.0000
  H   H59       1.0  0.45615  0.99910  0.14100  1.0000
  C   C104      1.0  0.37457  0.13113  0.14526  1.0000
  N   N6        1.0  0.37512  0.14897  0.04701  1.0000
  H   H60       1.0  0.14145  0.37225  0.25677  1.0000
  C   C105      1.0  0.72101  0.77231  0.96705  1.0000
  C   C106      1.0  0.76440  0.79270  0.99523  1.0000
  C   C107      1.0  0.80837  0.77153  0.95135  1.0000
  H   H61       1.0  0.77551  0.80866  0.01840  1.0000
  C   C108      1.0  0.21945  0.27256  0.03085  1.0000
  C   C109      1.0  0.26257  0.29340  0.00070  1.0000
  C   C110      1.0  0.30691  0.27245  0.04422  1.0000
  H   H62       1.0  0.27342  0.30953  0.97672  1.0000
  C   C111      1.0  0.10883  0.10942  0.10572  1.0000
  C   C112      1.0  0.11445  0.08853  0.19155  1.0000
  C   C113      1.0  0.09763  0.06926  0.17502  1.0000
  C   C114      1.0  0.07414  0.07047  0.07378  1.0000
  C   C115      1.0  0.06874  0.09139  0.98538  1.0000
  C   C116      1.0  0.08583  0.11040  0.00087  1.0000
  C   C117      1.0  0.05586  0.05162  0.06143  1.0000
  C   C118      1.0  0.03837  0.03660  0.04644  1.0000
  C   C119      1.0  0.01925  0.01837  0.03276  1.0000
  C   C120      1.0  0.99326  0.02052  0.95408  1.0000
  C   C121      1.0  0.97677  0.00091  0.94332  1.0000
  H   H63       1.0  0.13213  0.08757  0.27296  1.0000
  H   H64       1.0  0.10194  0.05327  0.24283  1.0000
  H   H65       1.0  0.05100  0.09229  0.90462  1.0000
  H   H66       1.0  0.08186  0.12648  0.93325  1.0000
  H   H67       1.0  0.04572  0.99467  0.16579  1.0000
  C   C122      1.0  0.12638  0.12961  0.12761  1.0000
  N   N7        1.0  0.12440  0.14761  0.03125  1.0000
  H   H68       1.0  0.35486  0.37477  0.19088  1.0000
  H   H69       1.0  0.14082  0.12860  0.23151  1.0000
  C   C123      1.0  0.44726  0.44699  0.04757  1.0000
  C   C124      1.0  0.46449  0.46197  0.02176  1.0000
  C   C125      1.0  0.48328  0.48027  0.99715  1.0000
  C   C126      1.0  0.51015  0.47755  0.93357  1.0000
  C   C127      1.0  0.52707  0.49694  0.92387  1.0000
  H   H70       1.0  0.45476  0.50518  0.09421  1.0000
  C   C128      1.0  0.37266  0.37153  0.11247  1.0000
  N   N8        1.0  0.37644  0.35224  0.03513  1.0000
  C   C129      1.0  0.82164  0.75005  0.94152  1.0000
  C   C130      1.0  0.73545  0.75060  0.96554  1.0000
  H   H71       1.0  0.84354  0.74993  0.92045  1.0000
  C   C131      1.0  0.67858  0.75099  0.93703  1.0000
  C   C132      1.0  0.76474  0.75038  0.96650  1.0000
  H   H72       1.0  0.65666  0.75119  0.91488  1.0000
  O   O5        1.0  0.95522  0.48386  0.83269  1.0000
  C   C133      1.0  0.93186  0.49739  0.78200  1.0000
  H   H73       1.0  0.91960  0.48551  0.70779  1.0000
  H   H74       1.0  0.93774  0.51236  0.70560  1.0000
  H   H75       1.0  0.92029  0.50331  0.88899  1.0000
  O   O6        1.0  0.52237  0.45736  0.88378  1.0000
  C   C134      1.0  0.50629  0.43713  0.84833  1.0000
  H   H76       1.0  0.52036  0.42541  0.78549  1.0000
  H   H77       1.0  0.48896  0.44144  0.76742  1.0000
  H   H78       1.0  0.49885  0.42870  0.96098  1.0000
  O   O7        1.0  0.51464  0.04009  0.79998  1.0000
  C   C135      1.0  0.51205  0.06378  0.85171  1.0000
  H   H79       1.0  0.52172  0.07403  0.75386  1.0000
  H   H80       1.0  0.52302  0.06646  0.96793  1.0000
  H   H81       1.0  0.49062  0.06891  0.86448  1.0000
  O   O8        1.0  0.98143  0.04034  0.89141  1.0000
  C   C136      1.0  0.99745  0.06015  0.84190  1.0000
  H   H82       1.0  0.98406  0.07013  0.75886  1.0000
  H   H83       1.0  0.01593  0.05502  0.77627  1.0000
  H   H84       1.0  0.00294  0.07071  0.94824  1.0000
  C   C137      1.0  0.27875  0.27159  0.52999  1.0000
  C   C138      1.0  0.23526  0.29207  0.50418  1.0000
  C   C139      1.0  0.19131  0.27078  0.54807  1.0000
  C   C140      1.0  0.17449  0.29209  0.55425  1.0000
  C   C141      1.0  0.14945  0.29327  0.46855  1.0000
  C   C142      1.0  0.13321  0.31308  0.47373  1.0000
  C   C143      1.0  0.14111  0.33262  0.56509  1.0000
  C   C144      1.0  0.16601  0.33143  0.65279  1.0000
  C   C145      1.0  0.18219  0.31158  0.64725  1.0000
  H   H85       1.0  0.22410  0.30811  0.48140  1.0000
  H   H86       1.0  0.14321  0.27881  0.39202  1.0000
  H   H87       1.0  0.11428  0.31419  0.40363  1.0000
  H   H88       1.0  0.17245  0.34580  0.72933  1.0000
  H   H89       1.0  0.20075  0.31058  0.72094  1.0000
  C   C146      1.0  0.77989  0.77102  0.46829  1.0000
  C   C147      1.0  0.73662  0.79174  0.49330  1.0000
  C   C148      1.0  0.69244  0.77081  0.45052  1.0000
  C   C149      1.0  0.67551  0.79206  0.44997  1.0000
  C   C150      1.0  0.68255  0.81249  0.36263  1.0000
  C   C151      1.0  0.66622  0.83226  0.36713  1.0000
  C   C152      1.0  0.64182  0.83237  0.45839  1.0000
  C   C153      1.0  0.63448  0.81185  0.54310  1.0000
  C   C154      1.0  0.65088  0.79217  0.53853  1.0000
  H   H90       1.0  0.72562  0.80779  0.51533  1.0000
  H   H91       1.0  0.70071  0.81248  0.28635  1.0000
  H   H92       1.0  0.67232  0.84757  0.29688  1.0000
  H   H93       1.0  0.61595  0.81210  0.61609  1.0000
  H   H94       1.0  0.64528  0.77686  0.61033  1.0000
  C   C155      1.0  0.94241  0.54978  0.42145  1.0000
  C   C156      1.0  0.95832  0.53349  0.43801  1.0000
  C   C157      1.0  0.97773  0.51562  0.46152  1.0000
  C   C158      1.0  0.00395  0.52158  0.51913  1.0000
  C   C159      1.0  0.02405  0.50499  0.55181  1.0000
  H   H95       1.0  0.98694  0.45700  0.44769  1.0000
  C   C160      1.0  0.87113  0.62769  0.35884  1.0000
  N   N9        1.0  0.87468  0.64581  0.44928  1.0000
  H   H96       1.0  0.64134  0.87262  0.29241  1.0000
  C   C161      1.0  0.55246  0.94556  0.47655  1.0000
  C   C162      1.0  0.53567  0.96124  0.48851  1.0000
  C   C163      1.0  0.51755  0.98026  0.49514  1.0000
  C   C164      1.0  0.48949  0.97822  0.53767  1.0000
  C   C165      1.0  0.47322  0.99802  0.53710  1.0000
  H   H97       1.0  0.54888  0.00434  0.41740  1.0000
  C   C166      1.0  0.62608  0.87011  0.38966  1.0000
  N   N10       1.0  0.62411  0.85126  0.47727  1.0000
  H   H98       1.0  0.85479  0.62628  0.26636  1.0000
  C   C167      1.0  0.27921  0.22836  0.53426  1.0000
  C   C168      1.0  0.23620  0.20728  0.51054  1.0000
  C   C169      1.0  0.19177  0.22790  0.54977  1.0000
  C   C170      1.0  0.17516  0.20648  0.55392  1.0000
  C   C171      1.0  0.15013  0.20600  0.46801  1.0000
  C   C172      1.0  0.13365  0.18639  0.47057  1.0000
  C   C173      1.0  0.14145  0.16618  0.55789  1.0000
  C   C174      1.0  0.16631  0.16660  0.64632  1.0000
  C   C175      1.0  0.18266  0.18634  0.64427  1.0000
  H   H99       1.0  0.22534  0.19115  0.48928  1.0000
  H   H100      1.0  0.14407  0.22100  0.39386  1.0000
  H   H101      1.0  0.11462  0.18592  0.40124  1.0000
  H   H102      1.0  0.17247  0.15177  0.72187  1.0000
  H   H103      1.0  0.20111  0.18666  0.71915  1.0000
  C   C176      1.0  0.78000  0.72782  0.46836  1.0000
  C   C177      1.0  0.73683  0.70696  0.49284  1.0000
  C   C178      1.0  0.69259  0.72795  0.44719  1.0000
  C   C179      1.0  0.67587  0.70666  0.44058  1.0000
  C   C180      1.0  0.68354  0.68677  0.35186  1.0000
  C   C181      1.0  0.66727  0.66701  0.34940  1.0000
  C   C182      1.0  0.64230  0.66633  0.43505  1.0000
  C   C183      1.0  0.63428  0.68634  0.52022  1.0000
  C   C184      1.0  0.65069  0.70599  0.52318  1.0000
  H   H104      1.0  0.72586  0.69083  0.51468  1.0000
  H   H105      1.0  0.70213  0.68724  0.27942  1.0000
  H   H106      1.0  0.67369  0.65226  0.27665  1.0000
  H   H107      1.0  0.61518  0.68570  0.58760  1.0000
  H   H108      1.0  0.64454  0.72083  0.59584  1.0000
  C   C185      1.0  0.89177  0.89002  0.38317  1.0000
  C   C186      1.0  0.88572  0.91169  0.30922  1.0000
  C   C187      1.0  0.90289  0.93065  0.33022  1.0000
  C   C188      1.0  0.92709  0.92835  0.42434  1.0000
  C   C189      1.0  0.93335  0.90640  0.49656  1.0000
  C   C190      1.0  0.91594  0.88771  0.47688  1.0000
  C   C191      1.0  0.94493  0.94725  0.44791  1.0000
  C   C192      1.0  0.96173  0.96252  0.47441  1.0000
  C   C193      1.0  0.98009  0.98112  0.49649  1.0000
  C   C194      1.0  0.00713  0.97880  0.55987  1.0000
  C   C195      1.0  0.02389  0.99830  0.56197  1.0000
  H   H109      1.0  0.86739  0.91346  0.23375  1.0000
  H   H110      1.0  0.89821  0.94732  0.27232  1.0000
  H   H111      1.0  0.95184  0.90454  0.57011  1.0000
  H   H112      1.0  0.92031  0.87091  0.53386  1.0000
  H   H113      1.0  0.95066  0.00552  0.39755  1.0000
  C   C196      1.0  0.87325  0.87046  0.36362  1.0000
  N   N11       1.0  0.87651  0.85169  0.45090  1.0000
  H   H114      1.0  0.64722  0.62452  0.30015  1.0000
  H   H115      1.0  0.85680  0.87279  0.27239  1.0000
  C   C197      1.0  0.55418  0.55286  0.44085  1.0000
  C   C198      1.0  0.53660  0.53802  0.46128  1.0000
  C   C199      1.0  0.51763  0.51968  0.47471  1.0000
  C   C200      1.0  0.49260  0.52060  0.56268  1.0000
  C   C201      1.0  0.47652  0.50065  0.57078  1.0000
  H   H116      1.0  0.54322  0.49795  0.32551  1.0000
  C   C202      1.0  0.62898  0.62790  0.37442  1.0000
  N   N12       1.0  0.62431  0.64750  0.44568  1.0000
  C   C203      1.0  0.17812  0.24925  0.55813  1.0000
  C   C204      1.0  0.26439  0.24988  0.53450  1.0000
  H   H117      1.0  0.15615  0.24906  0.57689  1.0000
  C   C205      1.0  0.32138  0.25027  0.55526  1.0000
  C   C206      1.0  0.23510  0.24967  0.53555  1.0000
  H   H118      1.0  0.34340  0.25040  0.57381  1.0000
  O   O9        1.0  0.04880  0.51386  0.60007  1.0000
  C   C207      1.0  0.06571  0.50081  0.71407  1.0000
  H   H119      1.0  0.07561  0.51379  0.79195  1.0000
  H   H120      1.0  0.05350  0.48905  0.79054  1.0000
  H   H121      1.0  0.08115  0.49076  0.64814  1.0000
  O   O10       1.0  0.48149  0.53911  0.64265  1.0000
  C   C208      1.0  0.49512  0.56116  0.65254  1.0000
  H   H122      1.0  0.48184  0.57165  0.73050  1.0000
  H   H123      1.0  0.51533  0.55948  0.71024  1.0000
  H   H124      1.0  0.49694  0.56937  0.53070  1.0000
  O   O11       1.0  0.47633  0.95772  0.57375  1.0000
  C   C209      1.0  0.48996  0.94113  0.68040  1.0000
  H   H125      1.0  0.47416  0.93399  0.76150  1.0000
  H   H126      1.0  0.49921  0.92721  0.60831  1.0000
  H   H127      1.0  0.50579  0.94951  0.75446  1.0000
  O   O12       1.0  0.01969  0.95901  0.61677  1.0000
  C   C210      1.0  0.00439  0.93825  0.65206  1.0000
  H   H128      1.0  0.01886  0.92696  0.71835  1.0000
  H   H129      1.0  0.98664  0.94186  0.72955  1.0000
  H   H130      1.0  0.99763  0.92976  0.53909  1.0000
  C   C211      1.0  0.72151  0.72778  0.46491  1.0000
  C   C212      1.0  0.76473  0.70699  0.49478  1.0000
  C   C213      1.0  0.80894  0.72799  0.45242  1.0000
  C   C214      1.0  0.82542  0.70653  0.44479  1.0000
  C   C215      1.0  0.85073  0.70516  0.52726  1.0000
  C   C216      1.0  0.86638  0.68500  0.52432  1.0000
  C   C217      1.0  0.85750  0.66525  0.43877  1.0000
  C   C218      1.0  0.83237  0.66662  0.35363  1.0000
  C   C219      1.0  0.81692  0.68689  0.35576  1.0000
  H   H131      1.0  0.77574  0.69088  0.51807  1.0000
  H   H132      1.0  0.85762  0.71978  0.60017  1.0000
  H   H133      1.0  0.88557  0.68378  0.59177  1.0000
  H   H134      1.0  0.82506  0.65194  0.28295  1.0000
  H   H135      1.0  0.79821  0.68794  0.28358  1.0000
  C   C220      1.0  0.22072  0.22797  0.53559  1.0000
  C   C221      1.0  0.26410  0.20746  0.51005  1.0000
  C   C222      1.0  0.30818  0.22874  0.54825  1.0000
  H   H136      1.0  0.27518  0.19143  0.48875  1.0000
  C   C223      1.0  0.10738  0.38957  0.62458  1.0000
  C   C224      1.0  0.11385  0.41151  0.68908  1.0000
  C   C225      1.0  0.09624  0.43030  0.66839  1.0000
  C   C226      1.0  0.07108  0.42759  0.58495  1.0000
  C   C227      1.0  0.06437  0.40539  0.52247  1.0000
  C   C228      1.0  0.08228  0.38691  0.54114  1.0000
  C   C229      1.0  0.05293  0.44647  0.56387  1.0000
  C   C230      1.0  0.03735  0.46301  0.54761  1.0000
  C   C231      1.0  0.01818  0.48110  0.52492  1.0000
  C   C232      1.0  0.99171  0.47518  0.46788  1.0000
  C   C233      1.0  0.97165  0.49171  0.43705  1.0000
  H   H137      1.0  0.13293  0.41375  0.75618  1.0000
  H   H138      1.0  0.10140  0.44719  0.71856  1.0000
  H   H139      1.0  0.04507  0.40323  0.45757  1.0000
  H   H140      1.0  0.07750  0.36995  0.49095  1.0000
  H   H141      1.0  0.00870  0.53972  0.54108  1.0000
  C   C234      1.0  0.12650  0.37024  0.64199  1.0000
  N   N13       1.0  0.12310  0.35154  0.55734  1.0000
  H   H142      1.0  0.35646  0.12578  0.71092  1.0000
  C   C235      1.0  0.39340  0.11040  0.61127  1.0000
  C   C236      1.0  0.38762  0.08800  0.67318  1.0000
  C   C237      1.0  0.40569  0.06969  0.65014  1.0000
  C   C238      1.0  0.43056  0.07337  0.56644  1.0000
  C   C239      1.0  0.43652  0.09606  0.50671  1.0000
  C   C240      1.0  0.41825  0.11409  0.52831  1.0000
  C   C241      1.0  0.44909  0.05499  0.54121  1.0000
  C   C242      1.0  0.46566  0.03948  0.51660  1.0000
  C   C243      1.0  0.48337  0.02036  0.49731  1.0000
  C   C244      1.0  0.51132  0.02233  0.45214  1.0000
  C   C245      1.0  0.52760  0.00252  0.45221  1.0000
  H   H143      1.0  0.36883  0.08509  0.74132  1.0000
  H   H144      1.0  0.40113  0.05247  0.69880  1.0000
  H   H145      1.0  0.45547  0.09899  0.44073  1.0000
  H   H146      1.0  0.42236  0.13147  0.48075  1.0000
  H   H147      1.0  0.45203  0.99623  0.57397  1.0000
  C   C246      1.0  0.37397  0.12934  0.63045  1.0000
  N   N14       1.0  0.37760  0.14887  0.55289  1.0000
  H   H148      1.0  0.14352  0.37277  0.72840  1.0000
  C   C247      1.0  0.72139  0.77099  0.46620  1.0000
  C   C248      1.0  0.76453  0.79176  0.49413  1.0000
  C   C249      1.0  0.80883  0.77087  0.45325  1.0000
  H   H149      1.0  0.77540  0.80784  0.51685  1.0000
  C   C250      1.0  0.22025  0.27116  0.53273  1.0000
  C   C251      1.0  0.26315  0.29226  0.50237  1.0000
  C   C252      1.0  0.30774  0.27164  0.54403  1.0000
  H   H150      1.0  0.27388  0.30841  0.47763  1.0000
  C   C253      1.0  0.05186  0.05359  0.53870  1.0000
  C   C254      1.0  0.03421  0.03879  0.52041  1.0000
  C   C255      1.0  0.01519  0.02053  0.50882  1.0000
  C   C256      1.0  0.98776  0.02315  0.45233  1.0000
  C   C257      1.0  0.97126  0.00353  0.44570  1.0000
  H   H151      1.0  0.04456  0.99619  0.60889  1.0000
  C   C258      1.0  0.12824  0.12727  0.61022  1.0000
  N   N15       1.0  0.12313  0.14763  0.54801  1.0000
  H   H152      1.0  0.36178  0.37027  0.73336  1.0000
  H   H153      1.0  0.14738  0.12283  0.67452  1.0000
  C   C259      1.0  0.44787  0.44572  0.52994  1.0000
  C   C260      1.0  0.46477  0.46105  0.50651  1.0000
  C   C261      1.0  0.48329  0.47973  0.49158  1.0000
  C   C262      1.0  0.50804  0.47898  0.40038  1.0000
  C   C263      1.0  0.52439  0.49867  0.39529  1.0000
  H   H154      1.0  0.45773  0.50148  0.64073  1.0000
  C   C264      1.0  0.37512  0.36965  0.62525  1.0000
  N   N16       1.0  0.37532  0.35250  0.52393  1.0000
  C   C265      1.0  0.82231  0.74945  0.44345  1.0000
  C   C266      1.0  0.73606  0.74940  0.46490  1.0000
  H   H155      1.0  0.84425  0.74955  0.42366  1.0000
  C   C267      1.0  0.67914  0.74940  0.43817  1.0000
  C   C268      1.0  0.76534  0.74941  0.46641  1.0000
  H   H156      1.0  0.65718  0.74946  0.41776  1.0000
  O   O13       1.0  0.94570  0.48390  0.40063  1.0000
  C   C269      1.0  0.93364  0.49181  0.24706  1.0000
  H   H157      1.0  0.94092  0.48089  0.14639  1.0000
  H   H158      1.0  0.93841  0.51010  0.22093  1.0000
  H   H159      1.0  0.91149  0.48977  0.26067  1.0000
  O   O14       1.0  0.51732  0.46076  0.30824  1.0000
  C   C270      1.0  0.51240  0.43725  0.36201  1.0000
  H   H160      1.0  0.52756  0.42667  0.29817  1.0000
  H   H161      1.0  0.49175  0.43161  0.32863  1.0000
  H   H162      1.0  0.51553  0.43547  0.49504  1.0000
  O   O15       1.0  0.52460  0.04274  0.41660  1.0000
  C   C271      1.0  0.51010  0.06029  0.32317  1.0000
  H   H163      1.0  0.52590  0.07023  0.25855  1.0000
  H   H164      1.0  0.49846  0.07178  0.40336  1.0000
  H   H165      1.0  0.49615  0.05247  0.23370  1.0000
  O   O16       1.0  0.97519  0.04365  0.40828  1.0000
  C   C272      1.0  0.99090  0.06209  0.33344  1.0000
  H   H166      1.0  0.97644  0.07172  0.25509  1.0000
  H   H167      1.0  0.00756  0.05529  0.25843  1.0000
  H   H168      1.0  0.99942  0.07362  0.42701  1.0000
  C  Sn1       1.0  0.32360  0.16935  0.11213  1.0000
  C   C273      1.0  0.34882  0.16607  0.03630  1.0000
  C  Sn2       1.0  0.36483  0.18348  0.98073  1.0000
  C  Sn3       1.0  0.35366  0.20796  0.00146  1.0000
  C   C274      1.0  0.32845  0.21123  0.07727  1.0000
  C  Sn4       1.0  0.31331  0.19217  0.13286  1.0000
  O  Te1       1.0  0.30883  0.15003  0.16674  1.0000
  O  Te2       1.0  0.38999  0.17977  0.90524  1.0000
  O  Te3       1.0  0.36934  0.22563  0.94676  1.0000
  O  Te4       1.0  0.28817  0.19588  0.20833  1.0000
  Mg  Mg1       1.0  0.40254  0.21165  0.85155  1.0000
  Mg  Mg2       1.0  0.27561  0.16402  0.26214  1.0000
  C  Sn5       1.0  0.57469  0.88773  0.48488  1.0000
  C   C275      1.0  0.59902  0.88757  0.39596  1.0000
  C  Sn6       1.0  0.61128  0.90843  0.34730  1.0000
  C  Sn7       1.0  0.59898  0.92990  0.38845  1.0000
  C   C276      1.0  0.57467  0.93006  0.47733  1.0000
  C  Sn8       1.0  0.56239  0.90921  0.52603  1.0000
  O  Te5       1.0  0.56279  0.86667  0.53227  1.0000
  O  Te6       1.0  0.63559  0.90782  0.25844  1.0000
  O  Te7       1.0  0.61090  0.95097  0.34097  1.0000
  O  Te8       1.0  0.53809  0.90981  0.61486  1.0000
  Mg  Mg3       1.0  0.64399  0.94112  0.22173  1.0000
  Mg  Mg4       1.0  0.52968  0.87652  0.65170  1.0000
  C  Sn9       1.0  0.43005  0.40157  0.95790  1.0000
  C   C277      1.0  0.42651  0.42568  0.01950  1.0000
  C  Sn10      1.0  0.40697  0.43050  0.13881  1.0000
  C  Sn11      1.0  0.38973  0.41249  0.19787  1.0000
  C   C278      1.0  0.39239  0.39005  0.13630  1.0000
  C  Sn12      1.0  0.41193  0.38522  0.01696  1.0000
  O  Te9       1.0  0.44972  0.39714  0.83867  1.0000
  O  Te10      1.0  0.40469  0.45308  0.19848  1.0000
  O  Te11      1.0  0.37005  0.41694  0.31719  1.0000
  O  Te12      1.0  0.41510  0.36099  0.95732  1.0000
  Mg  Mg5       1.0  0.37479  0.45047  0.36040  1.0000
  Mg  Mg6       1.0  0.44499  0.36358  0.79548  1.0000
  C  Sn13      1.0  0.91680  0.89362  0.03800  1.0000
  C   C279      1.0  0.89360  0.89171  0.94520  1.0000
  C  Sn14      1.0  0.88817  0.90937  0.83036  1.0000
  C  Sn15      1.0  0.90722  0.92765  0.80771  1.0000
  C   C280      1.0  0.93129  0.92790  0.90045  1.0000
  C  Sn16      1.0  0.93585  0.91190  0.01535  1.0000
  O  Te13      1.0  0.92180  0.87578  0.15210  1.0000
  O  Te14      1.0  0.86395  0.90874  0.73907  1.0000
  O  Te15      1.0  0.90219  0.94550  0.69349  1.0000
  O  Te16      1.0  0.96005  0.91252  0.10658  1.0000
  Mg  Mg7       1.0  0.86634  0.93698  0.59856  1.0000
  Mg  Mg8       1.0  0.95769  0.88429  0.24705  1.0000
  C  Sn17      1.0  0.07415  0.11123  0.56015  1.0000
  C   C281      1.0  0.10069  0.11015  0.62367  1.0000
  C  Sn18      1.0  0.11387  0.08875  0.64367  1.0000
  C  Sn19      1.0  0.10025  0.06800  0.59916  1.0000
  C   C282      1.0  0.07373  0.06909  0.53565  1.0000
  C  Sn20      1.0  0.06053  0.09048  0.51564  1.0000
  O  Te17      1.0  0.06137  0.13282  0.54120  1.0000
  O  Te18      1.0  0.14041  0.08811  0.70747  1.0000
  O  Te19      1.0  0.11306  0.04641  0.61816  1.0000
  O  Te20      1.0  0.03401  0.09113  0.45185  1.0000
  Mg  Mg9       1.0  0.14925  0.05452  0.71014  1.0000
  Mg  Mg10      1.0  0.02515  0.12471  0.44905  1.0000
  C  Sn21      1.0  0.85956  0.70365  0.99656  1.0000
  C   C283      1.0  0.83406  0.70739  0.92306  1.0000
  C  Sn22      1.0  0.81869  0.68867  0.86624  1.0000
  C  Sn23      1.0  0.82902  0.66572  0.88333  1.0000
  C   C284      1.0  0.85450  0.66199  0.95682  1.0000
  C  Sn24      1.0  0.86901  0.68236  0.01365  1.0000
  O  Te21      1.0  0.87369  0.72429  0.05248  1.0000
  O  Te22      1.0  0.79325  0.69285  0.79313  1.0000
  O  Te23      1.0  0.81398  0.64674  0.82733  1.0000
  O  Te24      1.0  0.89443  0.67819  0.08675  1.0000
  Mg  Mg11      1.0  0.78044  0.66131  0.73639  1.0000
  Mg  Mg12      1.0  0.90725  0.70972  0.14361  1.0000
  C  Sn25      1.0  0.61078  0.58312  0.28702  1.0000
  C   C285      1.0  0.60760  0.60599  0.33974  1.0000
  C  Sn26      1.0  0.58726  0.61157  0.45235  1.0000
  C  Sn27      1.0  0.56974  0.59392  0.51363  1.0000
  C   C286      1.0  0.57293  0.57106  0.46094  1.0000
  C  Sn28      1.0  0.59326  0.56547  0.34830  1.0000
  O  Te25      1.0  0.63126  0.57795  0.17438  1.0000
  O  Te26      1.0  0.58447  0.63455  0.50319  1.0000
  O  Te27      1.0  0.54926  0.59911  0.62635  1.0000
  O  Te28      1.0  0.59606  0.54250  0.29749  1.0000
  Mg  Mg13      1.0  0.55354  0.63296  0.65850  1.0000
  Mg  Mg14      1.0  0.62699  0.54407  0.14225  1.0000
  C  Sn29      1.0  0.31461  0.32056  0.59407  1.0000
  C   C287      1.0  0.31994  0.29899  0.52377  1.0000
  C  Sn30      1.0  0.34609  0.29366  0.46769  1.0000
  C  Sn31      1.0  0.36736  0.31022  0.48226  1.0000
  C   C288      1.0  0.36203  0.33177  0.55255  1.0000
  C  Sn32      1.0  0.33588  0.33712  0.60864  1.0000
  O  Te29      1.0  0.28832  0.32552  0.64931  1.0000
  O  Te30      1.0  0.35092  0.27198  0.39781  1.0000
  O  Te31      1.0  0.39367  0.30524  0.42694  1.0000
  O  Te32      1.0  0.33105  0.35878  0.67851  1.0000
  Mg  Mg15      1.0  0.39013  0.27335  0.34077  1.0000
  Mg  Mg16      1.0  0.29185  0.35742  0.73567  1.0000
  C  Sn33      1.0  0.16686  0.17313  0.18306  1.0000
  C   C289      1.0  0.14261  0.16919  0.09659  1.0000
  C  Sn34      1.0  0.13519  0.18282  0.97140  1.0000
  C  Sn35      1.0  0.15147  0.20245  0.93173  1.0000
  C   C290      1.0  0.17482  0.20803  0.01815  1.0000
  C  Sn36      1.0  0.18314  0.19275  0.14339  1.0000
  O  Te33      1.0  0.17477  0.15761  0.30773  1.0000
  O  Te34      1.0  0.11086  0.17853  0.88672  1.0000
  O  Te35      1.0  0.14353  0.21797  0.80695  1.0000
  O  Te36      1.0  0.20746  0.19704  0.22802  1.0000
  Mg  Mg17      1.0  0.10874  0.20467  0.72684  1.0000
  Mg  Mg18      1.0  0.20960  0.17090  0.38786  1.0000
  C  Sn37      1.0  0.82357  0.81497  0.31022  1.0000
  C   C291      1.0  0.82835  0.79404  0.39449  1.0000
  C  Sn38      1.0  0.84776  0.79286  0.52065  1.0000
  C  Sn39      1.0  0.86270  0.81302  0.56357  1.0000
  C   C292      1.0  0.85792  0.83393  0.47934  1.0000
  C  Sn40      1.0  0.83851  0.83513  0.35313  1.0000
  O  Te37      1.0  0.80406  0.81575  0.18451  1.0000
  O  Te38      1.0  0.85219  0.77175  0.60309  1.0000
  O  Te39      1.0  0.88222  0.81223  0.68938  1.0000
  O  Te40      1.0  0.83407  0.85623  0.27074  1.0000
  Mg  Mg19      1.0  0.88092  0.77945  0.76554  1.0000
  Mg  Mg20      1.0  0.80534  0.84854  0.10834  1.0000
  C  Sn41      1.0  0.86937  0.80366  0.99847  1.0000
  C   C293      1.0  0.86465  0.82485  0.91754  1.0000
  C  Sn42      1.0  0.83866  0.83034  0.85705  1.0000
  C  Sn43      1.0  0.81693  0.81432  0.87798  1.0000
  C   C294      1.0  0.82167  0.79315  0.95890  1.0000
  C  Sn44      1.0  0.84677  0.78930  0.01941  1.0000
  O  Te41      1.0  0.89464  0.80020  0.05795  1.0000
  O  Te42      1.0  0.83443  0.85163  0.77650  1.0000
  O  Te43      1.0  0.79077  0.81946  0.81842  1.0000
  O  Te44      1.0  0.85100  0.76803  0.09993  1.0000
  Mg  Mg21      1.0  0.79519  0.85067  0.71732  1.0000
  Mg  Mg22      1.0  0.89022  0.76897  0.15924  1.0000
  C  Sn45      1.0  0.88087  0.57952  0.34453  1.0000
  C   C295      1.0  0.88519  0.60214  0.39952  1.0000
  C  Sn46      1.0  0.91122  0.60926  0.44829  1.0000
  C  Sn47      1.0  0.93341  0.59344  0.44188  1.0000
  C   C296      1.0  0.92909  0.57084  0.38689  1.0000
  C  Sn48      1.0  0.90306  0.56370  0.33811  1.0000
  O  Te45      1.0  0.85467  0.57278  0.29637  1.0000
  O  Te46      1.0  0.91503  0.63197  0.50288  1.0000
  O  Te47      1.0  0.95962  0.60020  0.49011  1.0000
  O  Te48      1.0  0.89924  0.54101  0.28353  1.0000
  Mg  Mg23      1.0  0.95453  0.63295  0.55528  1.0000
  Mg  Mg24      1.0  0.85976  0.54001  0.23102  1.0000
  C  Sn49      1.0  0.35907  0.31122  0.91339  1.0000
  C   C297      1.0  0.35537  0.33191  0.99878  1.0000
  C  Sn50      1.0  0.33557  0.33474  0.12626  1.0000
  C  Sn51      1.0  0.32004  0.31482  0.16938  1.0000
  C   C298      1.0  0.32375  0.29414  0.08404  1.0000
  C  Sn52      1.0  0.34354  0.29130  0.95651  1.0000
  O  Te49      1.0  0.37809  0.31045  0.78637  1.0000
  O  Te50      1.0  0.33222  0.35562  0.20981  1.0000
  O  Te51      1.0  0.30100  0.31561  0.29651  1.0000
  O  Te52      1.0  0.34690  0.27043  0.87302  1.0000
  Mg  Mg25      1.0  0.30380  0.34801  0.37384  1.0000
  Mg  Mg26      1.0  0.37532  0.27802  0.70902  1.0000
  C  Sn53      1.0  0.90164  0.57463  0.77012  1.0000
  C   C299      1.0  0.92541  0.57292  0.86530  1.0000
  C  Sn54      1.0  0.93095  0.58929  0.98632  1.0000
  C  Sn55      1.0  0.91145  0.60942  0.01286  1.0000
  C   C300      1.0  0.88859  0.60947  0.91774  1.0000
  C  Sn56      1.0  0.88303  0.59310  0.79665  1.0000
  O  Te53      1.0  0.89652  0.55806  0.64982  1.0000
  O  Te54      1.0  0.95396  0.58888  0.07989  1.0000
  O  Te55      1.0  0.91660  0.62599  0.13328  1.0000
  O  Te56      1.0  0.85915  0.59516  0.70315  1.0000
  Mg  Mg27      1.0  0.95189  0.61574  0.22916  1.0000
  Mg  Mg28      1.0  0.86119  0.56831  0.55391  1.0000
  C  Sn57      1.0  0.35100  0.20117  0.42353  1.0000
  C   C301      1.0  0.32631  0.20473  0.50479  1.0000
  C  Sn58      1.0  0.31865  0.19014  0.63487  1.0000
  C  Sn59      1.0  0.33603  0.17160  0.68484  1.0000
  C   C302      1.0  0.36071  0.16805  0.60362  1.0000
  C  Sn60      1.0  0.36839  0.18264  0.47351  1.0000
  O  Te57      1.0  0.35826  0.21598  0.29382  1.0000
  O  Te58      1.0  0.29386  0.19404  0.71418  1.0000
  O  Te59      1.0  0.32876  0.15679  0.81466  1.0000
  O  Te60      1.0  0.39316  0.17875  0.39424  1.0000
  Mg  Mg29      1.0  0.29297  0.16917  0.88423  1.0000
  Mg  Mg30      1.0  0.39408  0.20362  0.22424  1.0000
  C  Sn61      1.0  0.42681  0.40318  0.43326  1.0000
  C   C303      1.0  0.42625  0.42489  0.50831  1.0000
  C  Sn62      1.0  0.41013  0.42848  0.64685  1.0000
  C  Sn63      1.0  0.39426  0.40996  0.71179  1.0000
  C   C304      1.0  0.39483  0.38826  0.63678  1.0000
  C  Sn64      1.0  0.41094  0.38467  0.49821  1.0000
  O  Te61      1.0  0.44307  0.39999  0.29489  1.0000
  O  Te62      1.0  0.40990  0.45034  0.71971  1.0000
  O  Te63      1.0  0.37799  0.41317  0.85028  1.0000
  O  Te64      1.0  0.41118  0.36281  0.42538  1.0000
  Mg  Mg31      1.0  0.38450  0.44610  0.90607  1.0000
  Mg  Mg32      1.0  0.43658  0.36703  0.23907  1.0000
