data_image0
_chemical_formula_structural       C3HC3HC5HCNHC5HCNHC3HC3HC5HCNH2C5HCNC2HC2HOCH3OCH3OCH3OCH3C3HC3HC5HCNHC5HCNHC3HC3HC5HCNH2C5HCNC2HC2HOCH3OCH3OCH3OCH3C3HC3HC5HCNHC5HCNHC3HC3HC5HCNH2C5HCNC2HC2HOCH3OCH3OCH3OCH3C3HC3HC5HCNHC5HCNHC3HC3HC5HCNH2C5HCNC2HC2HOCH3OCH3OCH3OCH3SnCSn2CSnTe4Mg2SnCSn2CSnTe4Mg2SnCSn2CSnTe4Mg2SnCSn2CSnTe4Mg2SnCSn2CSnTe4Mg2SnCSn2CSnTe4Mg2SnCSn2CSnTe4Mg2SnCSn2CSnTe4Mg2SnCSn2CSnTe4Mg2SnCSn2CSnTe4Mg2SnCSn2CSnTe4Mg2SnCSn2CSnTe4Mg2SnCSn2CSnTe4Mg2SnCSn2CSnTe4Mg2SnCSn2CSnTe4Mg2SnCSn2CSnTe4Mg2SnCSn2CSnTe4Mg2SnCSn2CSnTe4Mg2SnCSn2CSnTe4Mg2SnCSn2CSnTe4Mg2SnCSn2CSnTe4Mg2SnCSn2CSnTe4Mg2SnCSn2CSnTe4Mg2SnCSn2CSnTe4Mg2SnCSn2CSnTe4Mg2SnCSn2CSnTe4Mg2SnCSn2CSnTe4Mg2SnCSn2CSnTe4Mg2SnCSn2CSnTe4Mg2SnCSn2CSnTe4Mg2SnCSn2CSnTe4Mg2SnCSn2CSnTe4Mg2
_chemical_formula_sum              "C240 H104 N16 O16 Sn128 Te128 Mg64"
_cell_length_a       48.9811
_cell_length_b       57.538
_cell_length_c       8.13899
_cell_angle_alpha    89.3298
_cell_angle_beta     90.304
_cell_angle_gamma    89.9267

_symmetry_space_group_name_H-M    'P1'
_space_group_IT_number       1

loop_
  _space_group_symop_operation_xyz
  'x, y, z'

loop_
  _atom_site_type_symbol
  _atom_site_label
  _atom_site_symmetry_multiplicity
  _atom_site_fract_x
  _atom_site_fract_y
  _atom_site_fract_z
  _atom_site_occupancy
  C   C1        1.0  0.27796  0.27262  0.02827  1.0000
  C   C2        1.0  0.23466  0.29338  0.00233  1.0000
  C   C3        1.0  0.19056  0.27236  0.04987  1.0000
  H   H1        1.0  0.22365  0.30951  0.98013  1.0000
  C   C4        1.0  0.77948  0.77187  0.96778  1.0000
  C   C5        1.0  0.73650  0.79291  0.99534  1.0000
  C   C6        1.0  0.69206  0.77236  0.94974  1.0000
  H   H2        1.0  0.72576  0.80904  0.01883  1.0000
  C   C7        1.0  0.94434  0.55187  0.93171  1.0000
  C   C8        1.0  0.95967  0.53508  0.94059  1.0000
  C   C9        1.0  0.97933  0.51738  0.96408  1.0000
  C   C10       1.0  0.00333  0.52370  0.04953  1.0000
  C   C11       1.0  0.02437  0.50826  0.08784  1.0000
  H   H3        1.0  0.99540  0.46044  0.91407  1.0000
  C   C12       1.0  0.87232  0.62919  0.86427  1.0000
  N   N1        1.0  0.87493  0.64714  0.95754  1.0000
  H   H4        1.0  0.64373  0.87525  0.79816  1.0000
  C   C13       1.0  0.55399  0.94862  0.95853  1.0000
  C   C14       1.0  0.53633  0.96349  0.97585  1.0000
  C   C15       1.0  0.51710  0.98171  0.98511  1.0000
  C   C16       1.0  0.49159  0.98041  0.06796  1.0000
  C   C17       1.0  0.47511  0.00019  0.07267  1.0000
  H   H5        1.0  0.54257  0.00387  0.83516  1.0000
  C   C18       1.0  0.62725  0.87246  0.88751  1.0000
  N   N2        1.0  0.62417  0.85328  0.97010  1.0000
  H   H6        1.0  0.85680  0.62790  0.76667  1.0000
  C   C19       1.0  0.27806  0.22941  0.03121  1.0000
  C   C20       1.0  0.23492  0.20867  0.00195  1.0000
  C   C21       1.0  0.19065  0.22943  0.04763  1.0000
  H   H7        1.0  0.22405  0.19263  0.97773  1.0000
  C   C22       1.0  0.77922  0.72869  0.96901  1.0000
  C   C23       1.0  0.73586  0.70819  0.99557  1.0000
  C   C24       1.0  0.69178  0.72943  0.94790  1.0000
  H   H8        1.0  0.72476  0.69218  0.01911  1.0000
  C   C25       1.0  0.94759  0.94602  0.96172  1.0000
  C   C26       1.0  0.96493  0.96078  0.99041  1.0000
  C   C27       1.0  0.98384  0.97902  0.01215  1.0000
  C   C28       1.0  0.00935  0.97713  0.09613  1.0000
  C   C29       1.0  0.02624  0.99657  0.10264  1.0000
  H   H9        1.0  0.95739  0.00265  0.87881  1.0000
  C   C30       1.0  0.87355  0.87098  0.87234  1.0000
  N   N3        1.0  0.87693  0.85173  0.95400  1.0000
  H   H10       1.0  0.64077  0.62941  0.75959  1.0000
  H   H11       1.0  0.85652  0.87413  0.78630  1.0000
  C   C31       1.0  0.55566  0.55255  0.94147  1.0000
  C   C32       1.0  0.53819  0.53754  0.95908  1.0000
  C   C33       1.0  0.51907  0.51932  0.97482  1.0000
  C   C34       1.0  0.49210  0.52213  0.03591  1.0000
  C   C35       1.0  0.47513  0.50279  0.04485  1.0000
  H   H12       1.0  0.54740  0.49467  0.87368  1.0000
  C   C36       1.0  0.62664  0.63023  0.86404  1.0000
  N   N4        1.0  0.62504  0.64794  0.96025  1.0000
  C   C37       1.0  0.17725  0.25086  0.06000  1.0000
  C   C38       1.0  0.26339  0.25101  0.03127  1.0000
  H   H13       1.0  0.15538  0.25078  0.08262  1.0000
  C   C39       1.0  0.32028  0.25102  0.05855  1.0000
  C   C40       1.0  0.23410  0.25097  0.03148  1.0000
  H   H14       1.0  0.34218  0.25106  0.08115  1.0000
  O   O1        1.0  0.04603  0.51842  0.16668  1.0000
  C   C41       1.0  0.06890  0.50472  0.22215  1.0000
  H   H15       1.0  0.08186  0.51687  0.28963  1.0000
  H   H16       1.0  0.06243  0.49058  0.30457  1.0000
  H   H17       1.0  0.08013  0.49752  0.11796  1.0000
  O   O2        1.0  0.48003  0.54251  0.08284  1.0000
  C   C42       1.0  0.49605  0.56144  0.14507  1.0000
  H   H18       1.0  0.48181  0.57143  0.22016  1.0000
  H   H19       1.0  0.51314  0.55527  0.22142  1.0000
  H   H20       1.0  0.50386  0.57242  0.04484  1.0000
  O   O3        1.0  0.48008  0.96150  0.14282  1.0000
  C   C43       1.0  0.49515  0.94038  0.17264  1.0000
  H   H21       1.0  0.48219  0.93027  0.25624  1.0000
  H   H22       1.0  0.49831  0.93086  0.05817  1.0000
  H   H23       1.0  0.51483  0.94379  0.23222  1.0000
  O   O4        1.0  0.02004  0.95802  0.17510  1.0000
  C   C44       1.0  0.00725  0.93564  0.16471  1.0000
  H   H24       1.0  0.02119  0.92388  0.23106  1.0000
  H   H25       1.0  0.98716  0.93562  0.22382  1.0000
  H   H26       1.0  0.00519  0.93008  0.03674  1.0000
  C   C45       1.0  0.72071  0.72908  0.96634  1.0000
  C   C46       1.0  0.76377  0.70799  0.99693  1.0000
  C   C47       1.0  0.80815  0.72869  0.95294  1.0000
  H   H27       1.0  0.77460  0.69182  0.02139  1.0000
  C   C48       1.0  0.21955  0.22935  0.03020  1.0000
  C   C49       1.0  0.26283  0.20869  0.00287  1.0000
  C   C50       1.0  0.30697  0.22956  0.04975  1.0000
  H   H28       1.0  0.27379  0.19266  0.97942  1.0000
  C   C51       1.0  0.05588  0.44984  0.08420  1.0000
  C   C52       1.0  0.04072  0.46669  0.06971  1.0000
  C   C53       1.0  0.02151  0.48460  0.04037  1.0000
  C   C54       1.0  0.99766  0.47835  0.95283  1.0000
  C   C55       1.0  0.97674  0.49386  0.91341  1.0000
  H   H29       1.0  0.00541  0.54160  0.08866  1.0000
  C   C56       1.0  0.12659  0.37169  0.15502  1.0000
  N   N5        1.0  0.12429  0.35425  0.05677  1.0000
  H   H30       1.0  0.36093  0.12983  0.25192  1.0000
  C   C57       1.0  0.44605  0.05492  0.03030  1.0000
  C   C58       1.0  0.46291  0.03971  0.00374  1.0000
  C   C59       1.0  0.48162  0.02115  0.99073  1.0000
  C   C60       1.0  0.50649  0.02214  0.90084  1.0000
  C   C61       1.0  0.52357  0.00284  0.90300  1.0000
  H   H31       1.0  0.45615  0.99910  0.14100  1.0000
  C   C62       1.0  0.37457  0.13113  0.14526  1.0000
  N   N6        1.0  0.37512  0.14897  0.04701  1.0000
  H   H32       1.0  0.14145  0.37225  0.25677  1.0000
  C   C63       1.0  0.72101  0.77231  0.96705  1.0000
  C   C64       1.0  0.76440  0.79270  0.99523  1.0000
  C   C65       1.0  0.80837  0.77153  0.95135  1.0000
  H   H33       1.0  0.77551  0.80866  0.01840  1.0000
  C   C66       1.0  0.21945  0.27256  0.03085  1.0000
  C   C67       1.0  0.26257  0.29340  0.00070  1.0000
  C   C68       1.0  0.30691  0.27245  0.04422  1.0000
  H   H34       1.0  0.27342  0.30953  0.97672  1.0000
  C   C69       1.0  0.05586  0.05162  0.06143  1.0000
  C   C70       1.0  0.03837  0.03660  0.04644  1.0000
  C   C71       1.0  0.01925  0.01837  0.03276  1.0000
  C   C72       1.0  0.99326  0.02052  0.95408  1.0000
  C   C73       1.0  0.97677  0.00091  0.94332  1.0000
  H   H35       1.0  0.04572  0.99467  0.16579  1.0000
  C   C74       1.0  0.12638  0.12961  0.12761  1.0000
  N   N7        1.0  0.12440  0.14761  0.03125  1.0000
  H   H36       1.0  0.35486  0.37477  0.19088  1.0000
  H   H37       1.0  0.14082  0.12860  0.23151  1.0000
  C   C75       1.0  0.44726  0.44699  0.04757  1.0000
  C   C76       1.0  0.46449  0.46197  0.02176  1.0000
  C   C77       1.0  0.48328  0.48027  0.99715  1.0000
  C   C78       1.0  0.51015  0.47755  0.93357  1.0000
  C   C79       1.0  0.52707  0.49694  0.92387  1.0000
  H   H38       1.0  0.45476  0.50518  0.09421  1.0000
  C   C80       1.0  0.37266  0.37153  0.11247  1.0000
  N   N8        1.0  0.37644  0.35224  0.03513  1.0000
  C   C81       1.0  0.82164  0.75005  0.94152  1.0000
  C   C82       1.0  0.73545  0.75060  0.96554  1.0000
  H   H39       1.0  0.84354  0.74993  0.92045  1.0000
  C   C83       1.0  0.67858  0.75099  0.93703  1.0000
  C   C84       1.0  0.76474  0.75038  0.96650  1.0000
  H   H40       1.0  0.65666  0.75119  0.91488  1.0000
  O   O5        1.0  0.95522  0.48386  0.83269  1.0000
  C   C85       1.0  0.93186  0.49739  0.78200  1.0000
  H   H41       1.0  0.91960  0.48551  0.70779  1.0000
  H   H42       1.0  0.93774  0.51236  0.70560  1.0000
  H   H43       1.0  0.92029  0.50331  0.88899  1.0000
  O   O6        1.0  0.52237  0.45736  0.88378  1.0000
  C   C86       1.0  0.50629  0.43713  0.84833  1.0000
  H   H44       1.0  0.52036  0.42541  0.78549  1.0000
  H   H45       1.0  0.48896  0.44144  0.76742  1.0000
  H   H46       1.0  0.49885  0.42870  0.96098  1.0000
  O   O7        1.0  0.51464  0.04009  0.79998  1.0000
  C   C87       1.0  0.51205  0.06378  0.85171  1.0000
  H   H47       1.0  0.52172  0.07403  0.75386  1.0000
  H   H48       1.0  0.52302  0.06646  0.96793  1.0000
  H   H49       1.0  0.49062  0.06891  0.86448  1.0000
  O   O8        1.0  0.98143  0.04034  0.89141  1.0000
  C   C88       1.0  0.99745  0.06015  0.84190  1.0000
  H   H50       1.0  0.98406  0.07013  0.75886  1.0000
  H   H51       1.0  0.01593  0.05502  0.77627  1.0000
  H   H52       1.0  0.00294  0.07071  0.94824  1.0000
  C   C89       1.0  0.27875  0.27159  0.52999  1.0000
  C   C90       1.0  0.23526  0.29207  0.50418  1.0000
  C   C91       1.0  0.19131  0.27078  0.54807  1.0000
  H   H53       1.0  0.22410  0.30811  0.48140  1.0000
  C   C92       1.0  0.77989  0.77102  0.46829  1.0000
  C   C93       1.0  0.73662  0.79174  0.49330  1.0000
  C   C94       1.0  0.69244  0.77081  0.45052  1.0000
  H   H54       1.0  0.72562  0.80779  0.51533  1.0000
  C   C95       1.0  0.94241  0.54978  0.42145  1.0000
  C   C96       1.0  0.95832  0.53349  0.43801  1.0000
  C   C97       1.0  0.97773  0.51562  0.46152  1.0000
  C   C98       1.0  0.00395  0.52158  0.51913  1.0000
  C   C99       1.0  0.02405  0.50499  0.55181  1.0000
  H   H55       1.0  0.98694  0.45700  0.44769  1.0000
  C   C100      1.0  0.87113  0.62769  0.35884  1.0000
  N   N9        1.0  0.87468  0.64581  0.44928  1.0000
  H   H56       1.0  0.64134  0.87262  0.29241  1.0000
  C   C101      1.0  0.55246  0.94556  0.47655  1.0000
  C   C102      1.0  0.53567  0.96124  0.48851  1.0000
  C   C103      1.0  0.51755  0.98026  0.49514  1.0000
  C   C104      1.0  0.48949  0.97822  0.53767  1.0000
  C   C105      1.0  0.47322  0.99802  0.53710  1.0000
  H   H57       1.0  0.54888  0.00434  0.41740  1.0000
  C   C106      1.0  0.62608  0.87011  0.38966  1.0000
  N   N10       1.0  0.62411  0.85126  0.47727  1.0000
  H   H58       1.0  0.85479  0.62628  0.26636  1.0000
  C   C107      1.0  0.27921  0.22836  0.53426  1.0000
  C   C108      1.0  0.23620  0.20728  0.51054  1.0000
  C   C109      1.0  0.19177  0.22790  0.54977  1.0000
  H   H59       1.0  0.22534  0.19115  0.48928  1.0000
  C   C110      1.0  0.78000  0.72782  0.46836  1.0000
  C   C111      1.0  0.73683  0.70696  0.49284  1.0000
  C   C112      1.0  0.69259  0.72795  0.44719  1.0000
  H   H60       1.0  0.72586  0.69083  0.51468  1.0000
  C   C113      1.0  0.94493  0.94725  0.44791  1.0000
  C   C114      1.0  0.96173  0.96252  0.47441  1.0000
  C   C115      1.0  0.98009  0.98112  0.49649  1.0000
  C   C116      1.0  0.00713  0.97880  0.55987  1.0000
  C   C117      1.0  0.02389  0.99830  0.56197  1.0000
  H   H61       1.0  0.95066  0.00552  0.39755  1.0000
  C   C118      1.0  0.87325  0.87046  0.36362  1.0000
  N   N11       1.0  0.87651  0.85169  0.45090  1.0000
  H   H62       1.0  0.64722  0.62452  0.30015  1.0000
  H   H63       1.0  0.85680  0.87279  0.27239  1.0000
  C   C119      1.0  0.55418  0.55286  0.44085  1.0000
  C   C120      1.0  0.53660  0.53802  0.46128  1.0000
  C   C121      1.0  0.51763  0.51968  0.47471  1.0000
  C   C122      1.0  0.49260  0.52060  0.56268  1.0000
  C   C123      1.0  0.47652  0.50065  0.57078  1.0000
  H   H64       1.0  0.54322  0.49795  0.32551  1.0000
  C   C124      1.0  0.62898  0.62790  0.37442  1.0000
  N   N12       1.0  0.62431  0.64750  0.44568  1.0000
  C   C125      1.0  0.17812  0.24925  0.55813  1.0000
  C   C126      1.0  0.26439  0.24988  0.53450  1.0000
  H   H65       1.0  0.15615  0.24906  0.57689  1.0000
  C   C127      1.0  0.32138  0.25027  0.55526  1.0000
  C   C128      1.0  0.23510  0.24967  0.53555  1.0000
  H   H66       1.0  0.34340  0.25040  0.57381  1.0000
  O   O9        1.0  0.04880  0.51386  0.60007  1.0000
  C   C129      1.0  0.06571  0.50081  0.71407  1.0000
  H   H67       1.0  0.07561  0.51379  0.79195  1.0000
  H   H68       1.0  0.05350  0.48905  0.79054  1.0000
  H   H69       1.0  0.08115  0.49076  0.64814  1.0000
  O   O10       1.0  0.48149  0.53911  0.64265  1.0000
  C   C130      1.0  0.49512  0.56116  0.65254  1.0000
  H   H70       1.0  0.48184  0.57165  0.73050  1.0000
  H   H71       1.0  0.51533  0.55948  0.71024  1.0000
  H   H72       1.0  0.49694  0.56937  0.53070  1.0000
  O   O11       1.0  0.47633  0.95772  0.57375  1.0000
  C   C131      1.0  0.48996  0.94113  0.68040  1.0000
  H   H73       1.0  0.47416  0.93399  0.76150  1.0000
  H   H74       1.0  0.49921  0.92721  0.60831  1.0000
  H   H75       1.0  0.50579  0.94951  0.75446  1.0000
  O   O12       1.0  0.01969  0.95901  0.61677  1.0000
  C   C132      1.0  0.00439  0.93825  0.65206  1.0000
  H   H76       1.0  0.01886  0.92696  0.71835  1.0000
  H   H77       1.0  0.98664  0.94186  0.72955  1.0000
  H   H78       1.0  0.99763  0.92976  0.53909  1.0000
  C   C133      1.0  0.72151  0.72778  0.46491  1.0000
  C   C134      1.0  0.76473  0.70699  0.49478  1.0000
  C   C135      1.0  0.80894  0.72799  0.45242  1.0000
  H   H79       1.0  0.77574  0.69088  0.51807  1.0000
  C   C136      1.0  0.22072  0.22797  0.53559  1.0000
  C   C137      1.0  0.26410  0.20746  0.51005  1.0000
  C   C138      1.0  0.30818  0.22874  0.54825  1.0000
  H   H80       1.0  0.27518  0.19143  0.48875  1.0000
  C   C139      1.0  0.05293  0.44647  0.56387  1.0000
  C   C140      1.0  0.03735  0.46301  0.54761  1.0000
  C   C141      1.0  0.01818  0.48110  0.52492  1.0000
  C   C142      1.0  0.99171  0.47518  0.46788  1.0000
  C   C143      1.0  0.97165  0.49171  0.43705  1.0000
  H   H81       1.0  0.00870  0.53972  0.54108  1.0000
  C   C144      1.0  0.12650  0.37024  0.64199  1.0000
  N   N13       1.0  0.12310  0.35154  0.55734  1.0000
  H   H82       1.0  0.35646  0.12578  0.71092  1.0000
  C   C145      1.0  0.44909  0.05499  0.54121  1.0000
  C   C146      1.0  0.46566  0.03948  0.51660  1.0000
  C   C147      1.0  0.48337  0.02036  0.49731  1.0000
  C   C148      1.0  0.51132  0.02233  0.45214  1.0000
  C   C149      1.0  0.52760  0.00252  0.45221  1.0000
  H   H83       1.0  0.45203  0.99623  0.57397  1.0000
  C   C150      1.0  0.37397  0.12934  0.63045  1.0000
  N   N14       1.0  0.37760  0.14887  0.55289  1.0000
  H   H84       1.0  0.14352  0.37277  0.72840  1.0000
  C   C151      1.0  0.72139  0.77099  0.46620  1.0000
  C   C152      1.0  0.76453  0.79176  0.49413  1.0000
  C   C153      1.0  0.80883  0.77087  0.45325  1.0000
  H   H85       1.0  0.77540  0.80784  0.51685  1.0000
  C   C154      1.0  0.22025  0.27116  0.53273  1.0000
  C   C155      1.0  0.26315  0.29226  0.50237  1.0000
  C   C156      1.0  0.30774  0.27164  0.54403  1.0000
  H   H86       1.0  0.27388  0.30841  0.47763  1.0000
  C   C157      1.0  0.05186  0.05359  0.53870  1.0000
  C   C158      1.0  0.03421  0.03879  0.52041  1.0000
  C   C159      1.0  0.01519  0.02053  0.50882  1.0000
  C   C160      1.0  0.98776  0.02315  0.45233  1.0000
  C   C161      1.0  0.97126  0.00353  0.44570  1.0000
  H   H87       1.0  0.04456  0.99619  0.60889  1.0000
  C   C162      1.0  0.12824  0.12727  0.61022  1.0000
  N   N15       1.0  0.12313  0.14763  0.54801  1.0000
  H   H88       1.0  0.36178  0.37027  0.73336  1.0000
  H   H89       1.0  0.14738  0.12283  0.67452  1.0000
  C   C163      1.0  0.44787  0.44572  0.52994  1.0000
  C   C164      1.0  0.46477  0.46105  0.50651  1.0000
  C   C165      1.0  0.48329  0.47973  0.49158  1.0000
  C   C166      1.0  0.50804  0.47898  0.40038  1.0000
  C   C167      1.0  0.52439  0.49867  0.39529  1.0000
  H   H90       1.0  0.45773  0.50148  0.64073  1.0000
  C   C168      1.0  0.37512  0.36965  0.62525  1.0000
  N   N16       1.0  0.37532  0.35250  0.52393  1.0000
  C   C169      1.0  0.82231  0.74945  0.44345  1.0000
  C   C170      1.0  0.73606  0.74940  0.46490  1.0000
  H   H91       1.0  0.84425  0.74955  0.42366  1.0000
  C   C171      1.0  0.67914  0.74940  0.43817  1.0000
  C   C172      1.0  0.76534  0.74941  0.46641  1.0000
  H   H92       1.0  0.65718  0.74946  0.41776  1.0000
  O   O13       1.0  0.94570  0.48390  0.40063  1.0000
  C   C173      1.0  0.93364  0.49181  0.24706  1.0000
  H   H93       1.0  0.94092  0.48089  0.14639  1.0000
  H   H94       1.0  0.93841  0.51010  0.22093  1.0000
  H   H95       1.0  0.91149  0.48977  0.26067  1.0000
  O   O14       1.0  0.51732  0.46076  0.30824  1.0000
  C   C174      1.0  0.51240  0.43725  0.36201  1.0000
  H   H96       1.0  0.52756  0.42667  0.29817  1.0000
  H   H97       1.0  0.49175  0.43161  0.32863  1.0000
  H   H98       1.0  0.51553  0.43547  0.49504  1.0000
  O   O15       1.0  0.52460  0.04274  0.41660  1.0000
  C   C175      1.0  0.51010  0.06029  0.32317  1.0000
  H   H99       1.0  0.52590  0.07023  0.25855  1.0000
  H   H100      1.0  0.49846  0.07178  0.40336  1.0000
  H   H101      1.0  0.49615  0.05247  0.23370  1.0000
  O   O16       1.0  0.97519  0.04365  0.40828  1.0000
  C   C176      1.0  0.99090  0.06209  0.33344  1.0000
  H   H102      1.0  0.97644  0.07172  0.25509  1.0000
  H   H103      1.0  0.00756  0.05529  0.25843  1.0000
  H   H104      1.0  0.99942  0.07362  0.42701  1.0000
  C  Sn1       1.0  0.12986  0.30912  0.01671  1.0000
  C   C177      1.0  0.13571  0.33011  0.09401  1.0000
  C  Sn2       1.0  0.16225  0.33500  0.14680  1.0000
  C  Sn3       1.0  0.18339  0.31857  0.12172  1.0000
  C   C178      1.0  0.17754  0.29759  0.04443  1.0000
  C  Sn4       1.0  0.15188  0.29104  0.99162  1.0000
  O  Te1       1.0  0.10407  0.30295  0.96493  1.0000
  O  Te2       1.0  0.16760  0.35609  0.22384  1.0000
  O  Te3       1.0  0.21008  0.32310  0.17358  1.0000
  O  Te4       1.0  0.14653  0.26996  0.91461  1.0000
  Mg  Mg1       1.0  0.20720  0.35427  0.27243  1.0000
  Mg  Mg2       1.0  0.10694  0.27177  0.86589  1.0000
  C  Sn5       1.0  0.64027  0.81102  0.08159  1.0000
  C   C179      1.0  0.64534  0.83054  0.99981  1.0000
  C  Sn6       1.0  0.66439  0.83225  0.87316  1.0000
  C  Sn7       1.0  0.67957  0.81238  0.82721  1.0000
  C   C180      1.0  0.67538  0.79121  0.90894  1.0000
  C  Sn8       1.0  0.65545  0.79114  0.03564  1.0000
  O  Te5       1.0  0.62112  0.80971  0.20784  1.0000
  O  Te6       1.0  0.66822  0.85362  0.79325  1.0000
  O  Te7       1.0  0.69874  0.81370  0.70085  1.0000
  O  Te8       1.0  0.65162  0.76980  0.11551  1.0000
  Mg  Mg3       1.0  0.69664  0.84664  0.62889  1.0000
  Mg  Mg4       1.0  0.62319  0.77675  0.27982  1.0000
  C  Sn9       1.0  0.90164  0.57463  0.77012  1.0000
  C   C181      1.0  0.92541  0.57292  0.86530  1.0000
  C  Sn10      1.0  0.93095  0.58929  0.98632  1.0000
  C  Sn11      1.0  0.91145  0.60942  0.01286  1.0000
  C   C182      1.0  0.88859  0.60947  0.91774  1.0000
  C  Sn12      1.0  0.88303  0.59310  0.79665  1.0000
  O  Te9       1.0  0.89652  0.55806  0.64982  1.0000
  O  Te10      1.0  0.95396  0.58888  0.07989  1.0000
  O  Te11      1.0  0.91660  0.62599  0.13328  1.0000
  O  Te12      1.0  0.85915  0.59516  0.70315  1.0000
  Mg  Mg5       1.0  0.95189  0.61574  0.22916  1.0000
  Mg  Mg6       1.0  0.86119  0.56831  0.55391  1.0000
  C  Sn13      1.0  0.57325  0.90516  0.05999  1.0000
  C   C183      1.0  0.57637  0.92584  0.99198  1.0000
  C  Sn14      1.0  0.59460  0.93024  0.86395  1.0000
  C  Sn15      1.0  0.61092  0.91195  0.80254  1.0000
  C   C184      1.0  0.60868  0.88963  0.87052  1.0000
  C  Sn16      1.0  0.59046  0.88521  0.99858  1.0000
  O  Te13      1.0  0.55489  0.90116  0.18789  1.0000
  O  Te14      1.0  0.59648  0.95271  0.79798  1.0000
  O  Te15      1.0  0.62929  0.91597  0.67454  1.0000
  O  Te16      1.0  0.58769  0.86442  0.06452  1.0000
  Mg  Mg7       1.0  0.62447  0.94950  0.62513  1.0000
  Mg  Mg8       1.0  0.55969  0.86761  0.23731  1.0000
  C  Sn17      1.0  0.18435  0.18049  0.10277  1.0000
  C   C185      1.0  0.17855  0.20214  0.03109  1.0000
  C  Sn18      1.0  0.15313  0.20560  0.97409  1.0000
  C  Sn19      1.0  0.13218  0.18873  0.98914  1.0000
  C   C186      1.0  0.13709  0.16876  0.06081  1.0000
  C  Sn20      1.0  0.16339  0.16362  0.11782  1.0000
  O  Te17      1.0  0.21079  0.17575  0.15891  1.0000
  O  Te18      1.0  0.14783  0.22736  0.90282  1.0000
  O  Te19      1.0  0.10572  0.19349  0.93292  1.0000
  O  Te20      1.0  0.16869  0.14188  0.18908  1.0000
  Mg  Mg9       1.0  0.10859  0.22561  0.84496  1.0000
  Mg  Mg10      1.0  0.20793  0.14362  0.24706  1.0000
  C  Sn21      1.0  0.64899  0.70162  0.07172  1.0000
  C   C187      1.0  0.67459  0.70387  0.99100  1.0000
  C  Sn22      1.0  0.68311  0.68901  0.86680  1.0000
  C  Sn23      1.0  0.66658  0.66984  0.82228  1.0000
  C   C188      1.0  0.64188  0.66594  0.90296  1.0000
  C  Sn24      1.0  0.63246  0.68245  0.02719  1.0000
  O  Te21      1.0  0.64088  0.71671  0.19551  1.0000
  O  Te22      1.0  0.70790  0.69326  0.78791  1.0000
  O  Te23      1.0  0.67471  0.65475  0.69838  1.0000
  O  Te24      1.0  0.60768  0.67821  0.10605  1.0000
  Mg  Mg11      1.0  0.71015  0.66780  0.62697  1.0000
  Mg  Mg12      1.0  0.60541  0.70366  0.26693  1.0000
  C  Sn25      1.0  0.89600  0.92949  0.87046  1.0000
  C   C189      1.0  0.92070  0.92945  0.95716  1.0000
  C  Sn26      1.0  0.93238  0.91015  0.00190  1.0000
  C  Sn27      1.0  0.92089  0.88712  0.95901  1.0000
  C   C190      1.0  0.89620  0.88716  0.87234  1.0000
  C  Sn28      1.0  0.88362  0.90811  0.82756  1.0000
  O  Te25      1.0  0.88380  0.95065  0.82699  1.0000
  O  Te26      1.0  0.95707  0.91056  0.08860  1.0000
  O  Te27      1.0  0.93223  0.86760  0.00256  1.0000
  O  Te28      1.0  0.85895  0.90771  0.74090  1.0000
  Mg  Mg13      1.0  0.96578  0.87718  0.12007  1.0000
  Mg  Mg14      1.0  0.85023  0.94107  0.70929  1.0000
  C  Sn29      1.0  0.56753  0.59799  0.97388  1.0000
  C   C191      1.0  0.56985  0.57607  0.90309  1.0000
  C  Sn30      1.0  0.59440  0.56913  0.83204  1.0000
  C  Sn31      1.0  0.61710  0.58441  0.83182  1.0000
  C   C192      1.0  0.61477  0.60631  0.90260  1.0000
  C  Sn32      1.0  0.59023  0.61327  0.97366  1.0000
  O  Te29      1.0  0.54191  0.60623  0.04422  1.0000
  O  Te30      1.0  0.59623  0.54713  0.76197  1.0000
  O  Te31      1.0  0.64185  0.57781  0.76139  1.0000
  O  Te32      1.0  0.58751  0.63691  0.04372  1.0000
  Mg  Mg15      1.0  0.63427  0.54610  0.68131  1.0000
  Mg  Mg16      1.0  0.54948  0.63795  0.12448  1.0000
  C  Sn33      1.0  0.85956  0.70365  0.99656  1.0000
  C   C193      1.0  0.83406  0.70739  0.92306  1.0000
  C  Sn34      1.0  0.81869  0.68867  0.86624  1.0000
  C  Sn35      1.0  0.82902  0.66572  0.88333  1.0000
  C   C194      1.0  0.85450  0.66199  0.95682  1.0000
  C  Sn36      1.0  0.86901  0.68236  0.01365  1.0000
  O  Te33      1.0  0.87369  0.72429  0.05248  1.0000
  O  Te34      1.0  0.79325  0.69285  0.79313  1.0000
  O  Te35      1.0  0.81398  0.64674  0.82733  1.0000
  O  Te36      1.0  0.89443  0.67819  0.08675  1.0000
  Mg  Mg17      1.0  0.78044  0.66131  0.73639  1.0000
  Mg  Mg18      1.0  0.90725  0.70972  0.14361  1.0000
  C  Sn37      1.0  0.35017  0.20232  0.92980  1.0000
  C   C195      1.0  0.32435  0.20741  0.00854  1.0000
  C  Sn38      1.0  0.31595  0.19226  0.13365  1.0000
  C  Sn39      1.0  0.33284  0.17327  0.18114  1.0000
  C   C196      1.0  0.35777  0.16984  0.10244  1.0000
  C  Sn40      1.0  0.36706  0.18333  0.97728  1.0000
  O  Te37      1.0  0.35816  0.21769  0.80504  1.0000
  O  Te38      1.0  0.29093  0.19605  0.21053  1.0000
  O  Te39      1.0  0.32483  0.15789  0.30600  1.0000
  O  Te40      1.0  0.39207  0.17955  0.90045  1.0000
  Mg  Mg19      1.0  0.28898  0.17034  0.37383  1.0000
  Mg  Mg20      1.0  0.39405  0.20525  0.73720  1.0000
  C  Sn41      1.0  0.10676  0.43098  0.17180  1.0000
  C   C197      1.0  0.08246  0.43265  0.08167  1.0000
  C  Sn42      1.0  0.06934  0.41261  0.02683  1.0000
  C  Sn43      1.0  0.08074  0.39045  0.06292  1.0000
  C   C198      1.0  0.10503  0.38880  0.15302  1.0000
  C  Sn44      1.0  0.11816  0.40882  0.20789  1.0000
  O  Te41      1.0  0.11952  0.45124  0.22539  1.0000
  O  Te42      1.0  0.04596  0.41306  0.93687  1.0000
  O  Te43      1.0  0.06796  0.37019  0.00923  1.0000
  O  Te44      1.0  0.14241  0.40673  0.29782  1.0000
  Mg  Mg21      1.0  0.03618  0.38039  0.89090  1.0000
  Mg  Mg22      1.0  0.15220  0.43938  0.34393  1.0000
  C  Sn45      1.0  0.39616  0.08698  0.23606  1.0000
  C   C199      1.0  0.39711  0.10934  0.16741  1.0000
  C  Sn46      1.0  0.41258  0.11378  0.02684  1.0000
  C  Sn47      1.0  0.42829  0.09382  0.95328  1.0000
  C   C200      1.0  0.42645  0.07314  0.02190  1.0000
  C  Sn48      1.0  0.41099  0.06869  0.16250  1.0000
  O  Te45      1.0  0.38056  0.08295  0.37662  1.0000
  O  Te46      1.0  0.41410  0.13462  0.96049  1.0000
  O  Te47      1.0  0.44390  0.09788  0.81261  1.0000
  O  Te48      1.0  0.41034  0.04620  0.22883  1.0000
  Mg  Mg23      1.0  0.43830  0.13144  0.76795  1.0000
  Mg  Mg24      1.0  0.38614  0.04936  0.42130  1.0000
  C  Sn49      1.0  0.82518  0.83156  0.88583  1.0000
  C   C201      1.0  0.85025  0.83495  0.96479  1.0000
  C  Sn50      1.0  0.86420  0.81765  0.02638  1.0000
  C  Sn51      1.0  0.85379  0.79482  0.00859  1.0000
  C   C202      1.0  0.82963  0.78978  0.92965  1.0000
  C  Sn52      1.0  0.81477  0.80873  0.86805  1.0000
  O  Te49      1.0  0.81069  0.85077  0.82520  1.0000
  O  Te50      1.0  0.88921  0.82147  0.10490  1.0000
  O  Te51      1.0  0.86831  0.77560  0.06931  1.0000
  O  Te52      1.0  0.78979  0.80491  0.78954  1.0000
  Mg  Mg25      1.0  0.90138  0.78972  0.16675  1.0000
  Mg  Mg26      1.0  0.77760  0.83665  0.72757  1.0000
  C  Sn53      1.0  0.31465  0.32124  0.09938  1.0000
  C   C203      1.0  0.31935  0.29993  0.02380  1.0000
  C  Sn54      1.0  0.34619  0.29271  0.96580  1.0000
  C  Sn55      1.0  0.36792  0.30876  0.98381  1.0000
  C   C204      1.0  0.36233  0.33171  0.05938  1.0000
  C  Sn56      1.0  0.33638  0.33730  0.11739  1.0000
  O  Te53      1.0  0.28853  0.32644  0.15645  1.0000
  O  Te54      1.0  0.35039  0.27130  0.89061  1.0000
  O  Te55      1.0  0.39405  0.30354  0.92666  1.0000
  O  Te56      1.0  0.33218  0.35869  0.19257  1.0000
  Mg  Mg27      1.0  0.38959  0.27218  0.83294  1.0000
  Mg  Mg28      1.0  0.29298  0.35782  0.25036  1.0000
  C  Sn57      1.0  0.07581  0.09400  0.94321  1.0000
  C   C205      1.0  0.07675  0.07411  0.02366  1.0000
  C  Sn58      1.0  0.09355  0.07130  0.16172  1.0000
  C  Sn59      1.0  0.10883  0.09042  0.22068  1.0000
  C   C206      1.0  0.10700  0.11195  0.14026  1.0000
  C  Sn60      1.0  0.09021  0.11478  0.00217  1.0000
  O  Te57      1.0  0.05889  0.09641  0.80542  1.0000
  O  Te58      1.0  0.09504  0.04960  0.24005  1.0000
  O  Te59      1.0  0.12576  0.08799  0.35858  1.0000
  O  Te60      1.0  0.08959  0.13481  0.92387  1.0000
  Mg  Mg29      1.0  0.12095  0.05499  0.42319  1.0000
  Mg  Mg30      1.0  0.06369  0.12945  0.74078  1.0000
  C  Sn61      1.0  0.38463  0.41929  0.12310  1.0000
  C   C207      1.0  0.38804  0.39644  0.07051  1.0000
  C  Sn62      1.0  0.41382  0.38834  0.02590  1.0000
  C  Sn63      1.0  0.43668  0.40340  0.03410  1.0000
  C   C208      1.0  0.43327  0.42623  0.08668  1.0000
  C  Sn64      1.0  0.40749  0.43434  0.13130  1.0000
  O  Te61      1.0  0.35866  0.42701  0.16712  1.0000
  O  Te62      1.0  0.41761  0.36378  0.97366  1.0000
  O  Te63      1.0  0.46355  0.39400  0.99002  1.0000
  O  Te64      1.0  0.40458  0.45724  0.18354  1.0000
  Mg  Mg31      1.0  0.45712  0.36134  0.92677  1.0000
  Mg  Mg32      1.0  0.36508  0.45969  0.23053  1.0000
  C  Sn65      1.0  0.14871  0.29948  0.42342  1.0000
  C   C209      1.0  0.17328  0.29501  0.50609  1.0000
  C  Sn66      1.0  0.18131  0.30880  0.63791  1.0000
  C  Sn67      1.0  0.16443  0.32743  0.68824  1.0000
  C   C210      1.0  0.13988  0.33188  0.60561  1.0000
  C  Sn68      1.0  0.13183  0.31811  0.47375  1.0000
  O  Te65      1.0  0.14109  0.28547  0.29197  1.0000
  O  Te66      1.0  0.20596  0.30400  0.71862  1.0000
  O  Te67      1.0  0.17208  0.34143  0.81981  1.0000
  O  Te68      1.0  0.10720  0.32289  0.39308  1.0000
  Mg  Mg33      1.0  0.20750  0.32799  0.89081  1.0000
  Mg  Mg34      1.0  0.10563  0.29891  0.22094  1.0000
  C  Sn69      1.0  0.64195  0.79325  0.50668  1.0000
  C   C211      1.0  0.66688  0.79029  0.42677  1.0000
  C  Sn70      1.0  0.68139  0.80954  0.36833  1.0000
  C  Sn71      1.0  0.67077  0.83223  0.39029  1.0000
  C   C212      1.0  0.64586  0.83519  0.47018  1.0000
  C  Sn72      1.0  0.63134  0.81594  0.52864  1.0000
  O  Te69      1.0  0.62780  0.77376  0.56411  1.0000
  O  Te70      1.0  0.70626  0.80613  0.28878  1.0000
  O  Te71      1.0  0.68495  0.85173  0.33277  1.0000
  O  Te72      1.0  0.60648  0.81934  0.60817  1.0000
  Mg  Mg35      1.0  0.71796  0.83815  0.23237  1.0000
  Mg  Mg36      1.0  0.59477  0.78733  0.66470  1.0000
  C  Sn73      1.0  0.88087  0.57952  0.34453  1.0000
  C   C213      1.0  0.88519  0.60214  0.39952  1.0000
  C  Sn74      1.0  0.91122  0.60926  0.44829  1.0000
  C  Sn75      1.0  0.93341  0.59344  0.44188  1.0000
  C   C214      1.0  0.92909  0.57084  0.38689  1.0000
  C  Sn76      1.0  0.90306  0.56370  0.33811  1.0000
  O  Te73      1.0  0.85467  0.57278  0.29637  1.0000
  O  Te74      1.0  0.91503  0.63197  0.50288  1.0000
  O  Te75      1.0  0.95962  0.60020  0.49011  1.0000
  O  Te76      1.0  0.89924  0.54101  0.28353  1.0000
  Mg  Mg37      1.0  0.95453  0.63295  0.55528  1.0000
  Mg  Mg38      1.0  0.85976  0.54001  0.23102  1.0000
  C  Sn77      1.0  0.57308  0.90231  0.57646  1.0000
  C   C215      1.0  0.57432  0.92460  0.50680  1.0000
  C  Sn78      1.0  0.59140  0.92914  0.37339  1.0000
  C  Sn79      1.0  0.60758  0.91102  0.30817  1.0000
  C   C216      1.0  0.60634  0.88875  0.37780  1.0000
  C  Sn80      1.0  0.58927  0.88420  0.51124  1.0000
  O  Te77      1.0  0.55586  0.89816  0.70977  1.0000
  O  Te78      1.0  0.59229  0.95156  0.30586  1.0000
  O  Te79      1.0  0.62482  0.91519  0.17476  1.0000
  O  Te80      1.0  0.58837  0.86179  0.57874  1.0000
  Mg  Mg39      1.0  0.61893  0.94859  0.12519  1.0000
  Mg  Mg40      1.0  0.56173  0.86474  0.75935  1.0000
  C  Sn81      1.0  0.14137  0.20514  0.50124  1.0000
  C   C217      1.0  0.16673  0.20837  0.57707  1.0000
  C  Sn82      1.0  0.18146  0.18934  0.63859  1.0000
  C  Sn83      1.0  0.17063  0.16661  0.62394  1.0000
  C   C218      1.0  0.14529  0.16338  0.54813  1.0000
  C  Sn84      1.0  0.13054  0.18240  0.48659  1.0000
  O  Te81      1.0  0.12700  0.22441  0.44062  1.0000
  O  Te82      1.0  0.20676  0.19301  0.71395  1.0000
  O  Te83      1.0  0.18503  0.14733  0.68465  1.0000
  O  Te84      1.0  0.10526  0.17874  0.41125  1.0000
  Mg  Mg41      1.0  0.21862  0.16122  0.77712  1.0000
  Mg  Mg42      1.0  0.09339  0.21051  0.34795  1.0000
  C  Sn85      1.0  0.67607  0.66797  0.38254  1.0000
  C   C219      1.0  0.65091  0.66433  0.45873  1.0000
  C  Sn86      1.0  0.63592  0.68311  0.51783  1.0000
  C  Sn87      1.0  0.64629  0.70600  0.50033  1.0000
  C   C220      1.0  0.67143  0.70963  0.42415  1.0000
  C  Sn88      1.0  0.68644  0.69086  0.36504  1.0000
  O  Te85      1.0  0.69070  0.64894  0.32437  1.0000
  O  Te86      1.0  0.61082  0.67903  0.59362  1.0000
  O  Te87      1.0  0.63163  0.72503  0.55859  1.0000
  O  Te88      1.0  0.71152  0.69493  0.28927  1.0000
  Mg  Mg43      1.0  0.59846  0.71061  0.65277  1.0000
  Mg  Mg44      1.0  0.72389  0.66337  0.23000  1.0000
  C  Sn89      1.0  0.89238  0.91486  0.26648  1.0000
  C   C221      1.0  0.89496  0.89242  0.33238  1.0000
  C  Sn90      1.0  0.91302  0.88797  0.46240  1.0000
  C  Sn91      1.0  0.92883  0.90633  0.52799  1.0000
  C   C222      1.0  0.92625  0.92875  0.46211  1.0000
  C  Sn92      1.0  0.90819  0.93322  0.33207  1.0000
  O  Te89      1.0  0.87420  0.91891  0.13652  1.0000
  O  Te90      1.0  0.91525  0.86539  0.52620  1.0000
  O  Te91      1.0  0.94703  0.90226  0.65804  1.0000
  O  Te92      1.0  0.90596  0.95578  0.26829  1.0000
  Mg  Mg45      1.0  0.94283  0.86858  0.70319  1.0000
  Mg  Mg46      1.0  0.87838  0.95261  0.09137  1.0000
  C  Sn93      1.0  0.58220  0.60745  0.51780  1.0000
  C   C223      1.0  0.60798  0.60730  0.44507  1.0000
  C  Sn94      1.0  0.61571  0.58905  0.34363  1.0000
  C  Sn95      1.0  0.59728  0.57055  0.31416  1.0000
  C   C224      1.0  0.57151  0.57070  0.38684  1.0000
  C  Sn96      1.0  0.56377  0.58895  0.48833  1.0000
  O  Te93      1.0  0.57491  0.62588  0.61877  1.0000
  O  Te94      1.0  0.64160  0.58928  0.27234  1.0000
  O  Te95      1.0  0.60459  0.55211  0.21309  1.0000
  O  Te96      1.0  0.53790  0.58872  0.55957  1.0000
  Mg  Mg47      1.0  0.64209  0.56027  0.14396  1.0000
  Mg  Mg48      1.0  0.53738  0.61773  0.68789  1.0000
  C  Sn97      1.0  0.85931  0.70407  0.49282  1.0000
  C   C225      1.0  0.83380  0.70822  0.42045  1.0000
  C  Sn98      1.0  0.81805  0.68976  0.36296  1.0000
  C  Sn99      1.0  0.82800  0.66667  0.37821  1.0000
  C   C226      1.0  0.85349  0.66253  0.45057  1.0000
  C  Sn100     1.0  0.86925  0.68098  0.50807  1.0000
  O  Te97      1.0  0.87470  0.72278  0.54943  1.0000
  O  Te98      1.0  0.79262  0.69434  0.29101  1.0000
  O  Te99      1.0  0.81259  0.64795  0.32151  1.0000
  O  Te100     1.0  0.89467  0.67640  0.58001  1.0000
  Mg  Mg49      1.0  0.77921  0.66304  0.23268  1.0000
  Mg  Mg50      1.0  0.90809  0.70769  0.63845  1.0000
  C  Sn101     1.0  0.35100  0.20117  0.42353  1.0000
  C   C227      1.0  0.32631  0.20473  0.50479  1.0000
  C  Sn102     1.0  0.31865  0.19014  0.63487  1.0000
  C  Sn103     1.0  0.33603  0.17160  0.68484  1.0000
  C   C228      1.0  0.36071  0.16805  0.60362  1.0000
  C  Sn104     1.0  0.36839  0.18264  0.47351  1.0000
  O  Te101     1.0  0.35826  0.21598  0.29382  1.0000
  O  Te102     1.0  0.29386  0.19404  0.71418  1.0000
  O  Te103     1.0  0.32876  0.15679  0.81466  1.0000
  O  Te104     1.0  0.39316  0.17875  0.39424  1.0000
  Mg  Mg51      1.0  0.29297  0.16917  0.88423  1.0000
  Mg  Mg52      1.0  0.39408  0.20362  0.22424  1.0000
  C  Sn105     1.0  0.08081  0.39164  0.48836  1.0000
  C   C229      1.0  0.10598  0.39121  0.57005  1.0000
  C  Sn106     1.0  0.11310  0.40900  0.67733  1.0000
  C  Sn107     1.0  0.09468  0.42762  0.70359  1.0000
  C   C230      1.0  0.06953  0.42804  0.62196  1.0000
  C  Sn108     1.0  0.06239  0.41025  0.51463  1.0000
  O  Te105     1.0  0.07411  0.37366  0.38168  1.0000
  O  Te106     1.0  0.13838  0.40820  0.75755  1.0000
  O  Te107     1.0  0.10140  0.44560  0.81038  1.0000
  O  Te108     1.0  0.03712  0.41105  0.43446  1.0000
  Mg  Mg53      1.0  0.13819  0.43673  0.89111  1.0000
  Mg  Mg54      1.0  0.03728  0.38252  0.30095  1.0000
  C  Sn109     1.0  0.39405  0.08459  0.71679  1.0000
  C   C231      1.0  0.39628  0.10763  0.66220  1.0000
  C  Sn110     1.0  0.41518  0.11368  0.54115  1.0000
  C  Sn111     1.0  0.43220  0.09634  0.47317  1.0000
  C   C232      1.0  0.42996  0.07332  0.52773  1.0000
  C  Sn112     1.0  0.41107  0.06726  0.64880  1.0000
  O  Te109     1.0  0.37501  0.07894  0.83791  1.0000
  O  Te110     1.0  0.41704  0.13682  0.48859  1.0000
  O  Te111     1.0  0.45125  0.10201  0.35196  1.0000
  O  Te112     1.0  0.40920  0.04413  0.70134  1.0000
  Mg  Mg55      1.0  0.44612  0.13591  0.32070  1.0000
  Mg  Mg56      1.0  0.38012  0.04502  0.86915  1.0000
  C  Sn113     1.0  0.82487  0.83106  0.38730  1.0000
  C   C233      1.0  0.85002  0.83469  0.46459  1.0000
  C  Sn114     1.0  0.86522  0.81588  0.52523  1.0000
  C  Sn115     1.0  0.85508  0.79295  0.50818  1.0000
  C   C234      1.0  0.82994  0.78932  0.43091  1.0000
  C  Sn116     1.0  0.81472  0.80813  0.37025  1.0000
  O  Te113     1.0  0.81002  0.85012  0.32759  1.0000
  O  Te114     1.0  0.89031  0.81994  0.60209  1.0000
  O  Te115     1.0  0.86995  0.77388  0.56797  1.0000
  O  Te116     1.0  0.78965  0.80407  0.29341  1.0000
  Mg  Mg57      1.0  0.90301  0.78831  0.66319  1.0000
  Mg  Mg58      1.0  0.77694  0.83569  0.23219  1.0000
  C  Sn117     1.0  0.35816  0.29452  0.49489  1.0000
  C   C235      1.0  0.33282  0.29138  0.56993  1.0000
  C  Sn118     1.0  0.31785  0.31051  0.62337  1.0000
  C  Sn119     1.0  0.32843  0.33326  0.60128  1.0000
  C   C236      1.0  0.35376  0.33639  0.52626  1.0000
  C  Sn120     1.0  0.36874  0.31727  0.47280  1.0000
  O  Te117     1.0  0.37278  0.27514  0.44241  1.0000
  O  Te118     1.0  0.29256  0.30693  0.69810  1.0000
  O  Te119     1.0  0.31379  0.35265  0.65385  1.0000
  O  Te120     1.0  0.39401  0.32084  0.39809  1.0000
  Mg  Mg59      1.0  0.28032  0.33885  0.74878  1.0000
  Mg  Mg60      1.0  0.40627  0.28894  0.34729  1.0000
  C  Sn121     1.0  0.09885  0.07183  0.68399  1.0000
  C   C237      1.0  0.07290  0.07265  0.61193  1.0000
  C  Sn122     1.0  0.06510  0.09167  0.51421  1.0000
  C  Sn123     1.0  0.08363  0.11025  0.48786  1.0000
  C   C238      1.0  0.10956  0.10942  0.55987  1.0000
  C  Sn124     1.0  0.11738  0.09041  0.65764  1.0000
  O  Te121     1.0  0.10622  0.05265  0.78122  1.0000
  O  Te122     1.0  0.03905  0.09210  0.44352  1.0000
  O  Te123     1.0  0.07624  0.12944  0.39054  1.0000
  O  Te124     1.0  0.14342  0.08997  0.72828  1.0000
  Mg  Mg61      1.0  0.03851  0.12201  0.32077  1.0000
  Mg  Mg62      1.0  0.14398  0.06007  0.85098  1.0000
  C  Sn125     1.0  0.42681  0.40318  0.43326  1.0000
  C   C239      1.0  0.42625  0.42489  0.50831  1.0000
  C  Sn126     1.0  0.41013  0.42848  0.64685  1.0000
  C  Sn127     1.0  0.39426  0.40996  0.71179  1.0000
  C   C240      1.0  0.39483  0.38826  0.63678  1.0000
  C  Sn128     1.0  0.41094  0.38467  0.49821  1.0000
  O  Te125     1.0  0.44307  0.39999  0.29489  1.0000
  O  Te126     1.0  0.40990  0.45034  0.71971  1.0000
  O  Te127     1.0  0.37799  0.41317  0.85028  1.0000
  O  Te128     1.0  0.41118  0.36281  0.42538  1.0000
  Mg  Mg63      1.0  0.38450  0.44610  0.90607  1.0000
  Mg  Mg64      1.0  0.43658  0.36703  0.23907  1.0000
