data_image0
_chemical_formula_structural       C3HC3HC5HCNHC5HCNHC3HC3HC5HCNH2C5HCNC2HC2HOCH3OCH3OCH3OCH3C3HC3HC5HCNHC5HCNHC3HC3HC5HCNH2C5HCNC2HC2HOCH3OCH3OCH3OCH3C3HC3HC5HCNHC5HCNHC3HC3HC5HCNH2C5HCNC2HC2HOCH3OCH3OCH3OCH3C3HC3HC5HCNHC5HCNHC3HC3HC5HCNH2C5HCNC2HC2HOCH3OCH3OCH3OCH3C2Sn2C2HTe2HMgC2Sn2C2HTe2HMgC2Sn2C2HTe2HMgC2Sn2C2HTe2HMgC2Sn2C2HTe2HMgC2Sn2C2HTe2HMgC2Sn2C2HTe2HMgC2Sn2C2HTe2HMgC2Sn2C2HTe2HMgC2Sn2C2HTe2HMgC2Sn2C2HTe2HMgC2Sn2C2HTe2HMgC2Sn2C2HTe2HMgC2Sn2C2HTe2HMgC2Sn2C2HTe2HMgC2Sn2C2HTe2HMgC2Sn2C2HTe2HMgC2Sn2C2HTe2HMgC2Sn2C2HTe2HMgC2Sn2C2HTe2HMgC2Sn2C2HTe2HMgC2Sn2C2HTe2HMgC2Sn2C2HTe2HMgC2Sn2C2HTe2HMgC2Sn2C2HTe2HMgC2Sn2C2HTe2HMgC2Sn2C2HTe2HMgC2Sn2C2HTe2HMgC2Sn2C2HTe2HMgC2Sn2C2HTe2HMgC2Sn2C2HTe2HMgC2Sn2C2HTe2HMg
_chemical_formula_sum              "C304 H168 N16 O16 Sn64 Te64 Mg32"
_cell_length_a       48.9811
_cell_length_b       57.538
_cell_length_c       8.13899
_cell_angle_alpha    89.3298
_cell_angle_beta     90.304
_cell_angle_gamma    89.9267

_symmetry_space_group_name_H-M    'P1'
_space_group_IT_number       1

loop_
  _space_group_symop_operation_xyz
  'x, y, z'

loop_
  _atom_site_type_symbol
  _atom_site_label
  _atom_site_symmetry_multiplicity
  _atom_site_fract_x
  _atom_site_fract_y
  _atom_site_fract_z
  _atom_site_occupancy
  C   C1        1.0  0.27796  0.27262  0.02827  1.0000
  C   C2        1.0  0.23466  0.29338  0.00233  1.0000
  C   C3        1.0  0.19056  0.27236  0.04987  1.0000
  H   H1        1.0  0.22365  0.30951  0.98013  1.0000
  C   C4        1.0  0.77948  0.77187  0.96778  1.0000
  C   C5        1.0  0.73650  0.79291  0.99534  1.0000
  C   C6        1.0  0.69206  0.77236  0.94974  1.0000
  H   H2        1.0  0.72576  0.80904  0.01883  1.0000
  C   C7        1.0  0.94434  0.55187  0.93171  1.0000
  C   C8        1.0  0.95967  0.53508  0.94059  1.0000
  C   C9        1.0  0.97933  0.51738  0.96408  1.0000
  C   C10       1.0  0.00333  0.52370  0.04953  1.0000
  C   C11       1.0  0.02437  0.50826  0.08784  1.0000
  H   H3        1.0  0.99540  0.46044  0.91407  1.0000
  C   C12       1.0  0.87232  0.62919  0.86427  1.0000
  N   N1        1.0  0.87493  0.64714  0.95754  1.0000
  H   H4        1.0  0.64373  0.87525  0.79816  1.0000
  C   C13       1.0  0.55399  0.94862  0.95853  1.0000
  C   C14       1.0  0.53633  0.96349  0.97585  1.0000
  C   C15       1.0  0.51710  0.98171  0.98511  1.0000
  C   C16       1.0  0.49159  0.98041  0.06796  1.0000
  C   C17       1.0  0.47511  0.00019  0.07267  1.0000
  H   H5        1.0  0.54257  0.00387  0.83516  1.0000
  C   C18       1.0  0.62725  0.87246  0.88751  1.0000
  N   N2        1.0  0.62417  0.85328  0.97010  1.0000
  H   H6        1.0  0.85680  0.62790  0.76667  1.0000
  C   C19       1.0  0.27806  0.22941  0.03121  1.0000
  C   C20       1.0  0.23492  0.20867  0.00195  1.0000
  C   C21       1.0  0.19065  0.22943  0.04763  1.0000
  H   H7        1.0  0.22405  0.19263  0.97773  1.0000
  C   C22       1.0  0.77922  0.72869  0.96901  1.0000
  C   C23       1.0  0.73586  0.70819  0.99557  1.0000
  C   C24       1.0  0.69178  0.72943  0.94790  1.0000
  H   H8        1.0  0.72476  0.69218  0.01911  1.0000
  C   C25       1.0  0.94759  0.94602  0.96172  1.0000
  C   C26       1.0  0.96493  0.96078  0.99041  1.0000
  C   C27       1.0  0.98384  0.97902  0.01215  1.0000
  C   C28       1.0  0.00935  0.97713  0.09613  1.0000
  C   C29       1.0  0.02624  0.99657  0.10264  1.0000
  H   H9        1.0  0.95739  0.00265  0.87881  1.0000
  C   C30       1.0  0.87355  0.87098  0.87234  1.0000
  N   N3        1.0  0.87693  0.85173  0.95400  1.0000
  H   H10       1.0  0.64077  0.62941  0.75959  1.0000
  H   H11       1.0  0.85652  0.87413  0.78630  1.0000
  C   C31       1.0  0.55566  0.55255  0.94147  1.0000
  C   C32       1.0  0.53819  0.53754  0.95908  1.0000
  C   C33       1.0  0.51907  0.51932  0.97482  1.0000
  C   C34       1.0  0.49210  0.52213  0.03591  1.0000
  C   C35       1.0  0.47513  0.50279  0.04485  1.0000
  H   H12       1.0  0.54740  0.49467  0.87368  1.0000
  C   C36       1.0  0.62664  0.63023  0.86404  1.0000
  N   N4        1.0  0.62504  0.64794  0.96025  1.0000
  C   C37       1.0  0.17725  0.25086  0.06000  1.0000
  C   C38       1.0  0.26339  0.25101  0.03127  1.0000
  H   H13       1.0  0.15538  0.25078  0.08262  1.0000
  C   C39       1.0  0.32028  0.25102  0.05855  1.0000
  C   C40       1.0  0.23410  0.25097  0.03148  1.0000
  H   H14       1.0  0.34218  0.25106  0.08115  1.0000
  O   O1        1.0  0.04603  0.51842  0.16668  1.0000
  C   C41       1.0  0.06890  0.50472  0.22215  1.0000
  H   H15       1.0  0.08186  0.51687  0.28963  1.0000
  H   H16       1.0  0.06243  0.49058  0.30457  1.0000
  H   H17       1.0  0.08013  0.49752  0.11796  1.0000
  O   O2        1.0  0.48003  0.54251  0.08284  1.0000
  C   C42       1.0  0.49605  0.56144  0.14507  1.0000
  H   H18       1.0  0.48181  0.57143  0.22016  1.0000
  H   H19       1.0  0.51314  0.55527  0.22142  1.0000
  H   H20       1.0  0.50386  0.57242  0.04484  1.0000
  O   O3        1.0  0.48008  0.96150  0.14282  1.0000
  C   C43       1.0  0.49515  0.94038  0.17264  1.0000
  H   H21       1.0  0.48219  0.93027  0.25624  1.0000
  H   H22       1.0  0.49831  0.93086  0.05817  1.0000
  H   H23       1.0  0.51483  0.94379  0.23222  1.0000
  O   O4        1.0  0.02004  0.95802  0.17510  1.0000
  C   C44       1.0  0.00725  0.93564  0.16471  1.0000
  H   H24       1.0  0.02119  0.92388  0.23106  1.0000
  H   H25       1.0  0.98716  0.93562  0.22382  1.0000
  H   H26       1.0  0.00519  0.93008  0.03674  1.0000
  C   C45       1.0  0.72071  0.72908  0.96634  1.0000
  C   C46       1.0  0.76377  0.70799  0.99693  1.0000
  C   C47       1.0  0.80815  0.72869  0.95294  1.0000
  H   H27       1.0  0.77460  0.69182  0.02139  1.0000
  C   C48       1.0  0.21955  0.22935  0.03020  1.0000
  C   C49       1.0  0.26283  0.20869  0.00287  1.0000
  C   C50       1.0  0.30697  0.22956  0.04975  1.0000
  H   H28       1.0  0.27379  0.19266  0.97942  1.0000
  C   C51       1.0  0.05588  0.44984  0.08420  1.0000
  C   C52       1.0  0.04072  0.46669  0.06971  1.0000
  C   C53       1.0  0.02151  0.48460  0.04037  1.0000
  C   C54       1.0  0.99766  0.47835  0.95283  1.0000
  C   C55       1.0  0.97674  0.49386  0.91341  1.0000
  H   H29       1.0  0.00541  0.54160  0.08866  1.0000
  C   C56       1.0  0.12659  0.37169  0.15502  1.0000
  N   N5        1.0  0.12429  0.35425  0.05677  1.0000
  H   H30       1.0  0.36093  0.12983  0.25192  1.0000
  C   C57       1.0  0.44605  0.05492  0.03030  1.0000
  C   C58       1.0  0.46291  0.03971  0.00374  1.0000
  C   C59       1.0  0.48162  0.02115  0.99073  1.0000
  C   C60       1.0  0.50649  0.02214  0.90084  1.0000
  C   C61       1.0  0.52357  0.00284  0.90300  1.0000
  H   H31       1.0  0.45615  0.99910  0.14100  1.0000
  C   C62       1.0  0.37457  0.13113  0.14526  1.0000
  N   N6        1.0  0.37512  0.14897  0.04701  1.0000
  H   H32       1.0  0.14145  0.37225  0.25677  1.0000
  C   C63       1.0  0.72101  0.77231  0.96705  1.0000
  C   C64       1.0  0.76440  0.79270  0.99523  1.0000
  C   C65       1.0  0.80837  0.77153  0.95135  1.0000
  H   H33       1.0  0.77551  0.80866  0.01840  1.0000
  C   C66       1.0  0.21945  0.27256  0.03085  1.0000
  C   C67       1.0  0.26257  0.29340  0.00070  1.0000
  C   C68       1.0  0.30691  0.27245  0.04422  1.0000
  H   H34       1.0  0.27342  0.30953  0.97672  1.0000
  C   C69       1.0  0.05586  0.05162  0.06143  1.0000
  C   C70       1.0  0.03837  0.03660  0.04644  1.0000
  C   C71       1.0  0.01925  0.01837  0.03276  1.0000
  C   C72       1.0  0.99326  0.02052  0.95408  1.0000
  C   C73       1.0  0.97677  0.00091  0.94332  1.0000
  H   H35       1.0  0.04572  0.99467  0.16579  1.0000
  C   C74       1.0  0.12638  0.12961  0.12761  1.0000
  N   N7        1.0  0.12440  0.14761  0.03125  1.0000
  H   H36       1.0  0.35486  0.37477  0.19088  1.0000
  H   H37       1.0  0.14082  0.12860  0.23151  1.0000
  C   C75       1.0  0.44726  0.44699  0.04757  1.0000
  C   C76       1.0  0.46449  0.46197  0.02176  1.0000
  C   C77       1.0  0.48328  0.48027  0.99715  1.0000
  C   C78       1.0  0.51015  0.47755  0.93357  1.0000
  C   C79       1.0  0.52707  0.49694  0.92387  1.0000
  H   H38       1.0  0.45476  0.50518  0.09421  1.0000
  C   C80       1.0  0.37266  0.37153  0.11247  1.0000
  N   N8        1.0  0.37644  0.35224  0.03513  1.0000
  C   C81       1.0  0.82164  0.75005  0.94152  1.0000
  C   C82       1.0  0.73545  0.75060  0.96554  1.0000
  H   H39       1.0  0.84354  0.74993  0.92045  1.0000
  C   C83       1.0  0.67858  0.75099  0.93703  1.0000
  C   C84       1.0  0.76474  0.75038  0.96650  1.0000
  H   H40       1.0  0.65666  0.75119  0.91488  1.0000
  O   O5        1.0  0.95522  0.48386  0.83269  1.0000
  C   C85       1.0  0.93186  0.49739  0.78200  1.0000
  H   H41       1.0  0.91960  0.48551  0.70779  1.0000
  H   H42       1.0  0.93774  0.51236  0.70560  1.0000
  H   H43       1.0  0.92029  0.50331  0.88899  1.0000
  O   O6        1.0  0.52237  0.45736  0.88378  1.0000
  C   C86       1.0  0.50629  0.43713  0.84833  1.0000
  H   H44       1.0  0.52036  0.42541  0.78549  1.0000
  H   H45       1.0  0.48896  0.44144  0.76742  1.0000
  H   H46       1.0  0.49885  0.42870  0.96098  1.0000
  O   O7        1.0  0.51464  0.04009  0.79998  1.0000
  C   C87       1.0  0.51205  0.06378  0.85171  1.0000
  H   H47       1.0  0.52172  0.07403  0.75386  1.0000
  H   H48       1.0  0.52302  0.06646  0.96793  1.0000
  H   H49       1.0  0.49062  0.06891  0.86448  1.0000
  O   O8        1.0  0.98143  0.04034  0.89141  1.0000
  C   C88       1.0  0.99745  0.06015  0.84190  1.0000
  H   H50       1.0  0.98406  0.07013  0.75886  1.0000
  H   H51       1.0  0.01593  0.05502  0.77627  1.0000
  H   H52       1.0  0.00294  0.07071  0.94824  1.0000
  C   C89       1.0  0.27875  0.27159  0.52999  1.0000
  C   C90       1.0  0.23526  0.29207  0.50418  1.0000
  C   C91       1.0  0.19131  0.27078  0.54807  1.0000
  H   H53       1.0  0.22410  0.30811  0.48140  1.0000
  C   C92       1.0  0.77989  0.77102  0.46829  1.0000
  C   C93       1.0  0.73662  0.79174  0.49330  1.0000
  C   C94       1.0  0.69244  0.77081  0.45052  1.0000
  H   H54       1.0  0.72562  0.80779  0.51533  1.0000
  C   C95       1.0  0.94241  0.54978  0.42145  1.0000
  C   C96       1.0  0.95832  0.53349  0.43801  1.0000
  C   C97       1.0  0.97773  0.51562  0.46152  1.0000
  C   C98       1.0  0.00395  0.52158  0.51913  1.0000
  C   C99       1.0  0.02405  0.50499  0.55181  1.0000
  H   H55       1.0  0.98694  0.45700  0.44769  1.0000
  C   C100      1.0  0.87113  0.62769  0.35884  1.0000
  N   N9        1.0  0.87468  0.64581  0.44928  1.0000
  H   H56       1.0  0.64134  0.87262  0.29241  1.0000
  C   C101      1.0  0.55246  0.94556  0.47655  1.0000
  C   C102      1.0  0.53567  0.96124  0.48851  1.0000
  C   C103      1.0  0.51755  0.98026  0.49514  1.0000
  C   C104      1.0  0.48949  0.97822  0.53767  1.0000
  C   C105      1.0  0.47322  0.99802  0.53710  1.0000
  H   H57       1.0  0.54888  0.00434  0.41740  1.0000
  C   C106      1.0  0.62608  0.87011  0.38966  1.0000
  N   N10       1.0  0.62411  0.85126  0.47727  1.0000
  H   H58       1.0  0.85479  0.62628  0.26636  1.0000
  C   C107      1.0  0.27921  0.22836  0.53426  1.0000
  C   C108      1.0  0.23620  0.20728  0.51054  1.0000
  C   C109      1.0  0.19177  0.22790  0.54977  1.0000
  H   H59       1.0  0.22534  0.19115  0.48928  1.0000
  C   C110      1.0  0.78000  0.72782  0.46836  1.0000
  C   C111      1.0  0.73683  0.70696  0.49284  1.0000
  C   C112      1.0  0.69259  0.72795  0.44719  1.0000
  H   H60       1.0  0.72586  0.69083  0.51468  1.0000
  C   C113      1.0  0.94493  0.94725  0.44791  1.0000
  C   C114      1.0  0.96173  0.96252  0.47441  1.0000
  C   C115      1.0  0.98009  0.98112  0.49649  1.0000
  C   C116      1.0  0.00713  0.97880  0.55987  1.0000
  C   C117      1.0  0.02389  0.99830  0.56197  1.0000
  H   H61       1.0  0.95066  0.00552  0.39755  1.0000
  C   C118      1.0  0.87325  0.87046  0.36362  1.0000
  N   N11       1.0  0.87651  0.85169  0.45090  1.0000
  H   H62       1.0  0.64722  0.62452  0.30015  1.0000
  H   H63       1.0  0.85680  0.87279  0.27239  1.0000
  C   C119      1.0  0.55418  0.55286  0.44085  1.0000
  C   C120      1.0  0.53660  0.53802  0.46128  1.0000
  C   C121      1.0  0.51763  0.51968  0.47471  1.0000
  C   C122      1.0  0.49260  0.52060  0.56268  1.0000
  C   C123      1.0  0.47652  0.50065  0.57078  1.0000
  H   H64       1.0  0.54322  0.49795  0.32551  1.0000
  C   C124      1.0  0.62898  0.62790  0.37442  1.0000
  N   N12       1.0  0.62431  0.64750  0.44568  1.0000
  C   C125      1.0  0.17812  0.24925  0.55813  1.0000
  C   C126      1.0  0.26439  0.24988  0.53450  1.0000
  H   H65       1.0  0.15615  0.24906  0.57689  1.0000
  C   C127      1.0  0.32138  0.25027  0.55526  1.0000
  C   C128      1.0  0.23510  0.24967  0.53555  1.0000
  H   H66       1.0  0.34340  0.25040  0.57381  1.0000
  O   O9        1.0  0.04880  0.51386  0.60007  1.0000
  C   C129      1.0  0.06571  0.50081  0.71407  1.0000
  H   H67       1.0  0.07561  0.51379  0.79195  1.0000
  H   H68       1.0  0.05350  0.48905  0.79054  1.0000
  H   H69       1.0  0.08115  0.49076  0.64814  1.0000
  O   O10       1.0  0.48149  0.53911  0.64265  1.0000
  C   C130      1.0  0.49512  0.56116  0.65254  1.0000
  H   H70       1.0  0.48184  0.57165  0.73050  1.0000
  H   H71       1.0  0.51533  0.55948  0.71024  1.0000
  H   H72       1.0  0.49694  0.56937  0.53070  1.0000
  O   O11       1.0  0.47633  0.95772  0.57375  1.0000
  C   C131      1.0  0.48996  0.94113  0.68040  1.0000
  H   H73       1.0  0.47416  0.93399  0.76150  1.0000
  H   H74       1.0  0.49921  0.92721  0.60831  1.0000
  H   H75       1.0  0.50579  0.94951  0.75446  1.0000
  O   O12       1.0  0.01969  0.95901  0.61677  1.0000
  C   C132      1.0  0.00439  0.93825  0.65206  1.0000
  H   H76       1.0  0.01886  0.92696  0.71835  1.0000
  H   H77       1.0  0.98664  0.94186  0.72955  1.0000
  H   H78       1.0  0.99763  0.92976  0.53909  1.0000
  C   C133      1.0  0.72151  0.72778  0.46491  1.0000
  C   C134      1.0  0.76473  0.70699  0.49478  1.0000
  C   C135      1.0  0.80894  0.72799  0.45242  1.0000
  H   H79       1.0  0.77574  0.69088  0.51807  1.0000
  C   C136      1.0  0.22072  0.22797  0.53559  1.0000
  C   C137      1.0  0.26410  0.20746  0.51005  1.0000
  C   C138      1.0  0.30818  0.22874  0.54825  1.0000
  H   H80       1.0  0.27518  0.19143  0.48875  1.0000
  C   C139      1.0  0.05293  0.44647  0.56387  1.0000
  C   C140      1.0  0.03735  0.46301  0.54761  1.0000
  C   C141      1.0  0.01818  0.48110  0.52492  1.0000
  C   C142      1.0  0.99171  0.47518  0.46788  1.0000
  C   C143      1.0  0.97165  0.49171  0.43705  1.0000
  H   H81       1.0  0.00870  0.53972  0.54108  1.0000
  C   C144      1.0  0.12650  0.37024  0.64199  1.0000
  N   N13       1.0  0.12310  0.35154  0.55734  1.0000
  H   H82       1.0  0.35646  0.12578  0.71092  1.0000
  C   C145      1.0  0.44909  0.05499  0.54121  1.0000
  C   C146      1.0  0.46566  0.03948  0.51660  1.0000
  C   C147      1.0  0.48337  0.02036  0.49731  1.0000
  C   C148      1.0  0.51132  0.02233  0.45214  1.0000
  C   C149      1.0  0.52760  0.00252  0.45221  1.0000
  H   H83       1.0  0.45203  0.99623  0.57397  1.0000
  C   C150      1.0  0.37397  0.12934  0.63045  1.0000
  N   N14       1.0  0.37760  0.14887  0.55289  1.0000
  H   H84       1.0  0.14352  0.37277  0.72840  1.0000
  C   C151      1.0  0.72139  0.77099  0.46620  1.0000
  C   C152      1.0  0.76453  0.79176  0.49413  1.0000
  C   C153      1.0  0.80883  0.77087  0.45325  1.0000
  H   H85       1.0  0.77540  0.80784  0.51685  1.0000
  C   C154      1.0  0.22025  0.27116  0.53273  1.0000
  C   C155      1.0  0.26315  0.29226  0.50237  1.0000
  C   C156      1.0  0.30774  0.27164  0.54403  1.0000
  H   H86       1.0  0.27388  0.30841  0.47763  1.0000
  C   C157      1.0  0.05186  0.05359  0.53870  1.0000
  C   C158      1.0  0.03421  0.03879  0.52041  1.0000
  C   C159      1.0  0.01519  0.02053  0.50882  1.0000
  C   C160      1.0  0.98776  0.02315  0.45233  1.0000
  C   C161      1.0  0.97126  0.00353  0.44570  1.0000
  H   H87       1.0  0.04456  0.99619  0.60889  1.0000
  C   C162      1.0  0.12824  0.12727  0.61022  1.0000
  N   N15       1.0  0.12313  0.14763  0.54801  1.0000
  H   H88       1.0  0.36178  0.37027  0.73336  1.0000
  H   H89       1.0  0.14738  0.12283  0.67452  1.0000
  C   C163      1.0  0.44787  0.44572  0.52994  1.0000
  C   C164      1.0  0.46477  0.46105  0.50651  1.0000
  C   C165      1.0  0.48329  0.47973  0.49158  1.0000
  C   C166      1.0  0.50804  0.47898  0.40038  1.0000
  C   C167      1.0  0.52439  0.49867  0.39529  1.0000
  H   H90       1.0  0.45773  0.50148  0.64073  1.0000
  C   C168      1.0  0.37512  0.36965  0.62525  1.0000
  N   N16       1.0  0.37532  0.35250  0.52393  1.0000
  C   C169      1.0  0.82231  0.74945  0.44345  1.0000
  C   C170      1.0  0.73606  0.74940  0.46490  1.0000
  H   H91       1.0  0.84425  0.74955  0.42366  1.0000
  C   C171      1.0  0.67914  0.74940  0.43817  1.0000
  C   C172      1.0  0.76534  0.74941  0.46641  1.0000
  H   H92       1.0  0.65718  0.74946  0.41776  1.0000
  O   O13       1.0  0.94570  0.48390  0.40063  1.0000
  C   C173      1.0  0.93364  0.49181  0.24706  1.0000
  H   H93       1.0  0.94092  0.48089  0.14639  1.0000
  H   H94       1.0  0.93841  0.51010  0.22093  1.0000
  H   H95       1.0  0.91149  0.48977  0.26067  1.0000
  O   O14       1.0  0.51732  0.46076  0.30824  1.0000
  C   C174      1.0  0.51240  0.43725  0.36201  1.0000
  H   H96       1.0  0.52756  0.42667  0.29817  1.0000
  H   H97       1.0  0.49175  0.43161  0.32863  1.0000
  H   H98       1.0  0.51553  0.43547  0.49504  1.0000
  O   O15       1.0  0.52460  0.04274  0.41660  1.0000
  C   C175      1.0  0.51010  0.06029  0.32317  1.0000
  H   H99       1.0  0.52590  0.07023  0.25855  1.0000
  H   H100      1.0  0.49846  0.07178  0.40336  1.0000
  H   H101      1.0  0.49615  0.05247  0.23370  1.0000
  O   O16       1.0  0.97519  0.04365  0.40828  1.0000
  C   C176      1.0  0.99090  0.06209  0.33344  1.0000
  H   H102      1.0  0.97644  0.07172  0.25509  1.0000
  H   H103      1.0  0.00756  0.05529  0.25843  1.0000
  H   H104      1.0  0.99942  0.07362  0.42701  1.0000
  C   C177      1.0  0.17294  0.33045  0.16526  1.0000
  C   C178      1.0  0.14896  0.33578  0.07890  1.0000
  C  Sn1       1.0  0.13692  0.31720  0.98463  1.0000
  C  Sn2       1.0  0.14825  0.29453  0.97695  1.0000
  C   C179      1.0  0.17135  0.29103  0.06389  1.0000
  C   C180      1.0  0.18413  0.30810  0.15781  1.0000
  H   H105      1.0  0.18282  0.34365  0.23800  1.0000
  O  Te1       1.0  0.11298  0.32282  0.89906  1.0000
  O  Te2       1.0  0.13574  0.27729  0.88372  1.0000
  H   H106      1.0  0.20269  0.30396  0.22475  1.0000
  Mg  Mg1       1.0  0.10347  0.29339  0.78883  1.0000
  C   C181      1.0  0.67356  0.83148  0.85595  1.0000
  C   C182      1.0  0.64795  0.83479  0.92695  1.0000
  C  Sn3       1.0  0.63492  0.81859  0.01840  1.0000
  C  Sn4       1.0  0.64871  0.79704  0.03897  1.0000
  C   C183      1.0  0.67522  0.79226  0.96755  1.0000
  C   C184      1.0  0.68718  0.81024  0.87624  1.0000
  H   H107      1.0  0.68282  0.84540  0.78538  1.0000
  O  Te3       1.0  0.60932  0.82218  0.08844  1.0000
  O  Te4       1.0  0.63704  0.77891  0.12982  1.0000
  H   H108      1.0  0.70702  0.80768  0.82137  1.0000
  Mg  Mg2       1.0  0.60181  0.79220  0.20135  1.0000
  C   C185      1.0  0.91969  0.60985  0.00142  1.0000
  C   C186      1.0  0.89723  0.61060  0.90312  1.0000
  C  Sn5       1.0  0.88762  0.59181  0.81235  1.0000
  C  Sn6       1.0  0.90167  0.57024  0.82040  1.0000
  C   C187      1.0  0.92498  0.56801  0.91919  1.0000
  C   C188      1.0  0.93355  0.58858  0.00948  1.0000
  H   H109      1.0  0.92699  0.62447  0.07135  1.0000
  O  Te5       1.0  0.86428  0.59452  0.71472  1.0000
  O  Te6       1.0  0.89249  0.55119  0.73099  1.0000
  H   H110      1.0  0.95161  0.58671  0.08566  1.0000
  Mg  Mg3       1.0  0.85975  0.56347  0.61557  1.0000
  C   C189      1.0  0.60379  0.93031  0.83861  1.0000
  C   C190      1.0  0.57825  0.93099  0.91414  1.0000
  C  Sn7       1.0  0.56814  0.91134  0.99580  1.0000
  C  Sn8       1.0  0.58306  0.89232  0.00179  1.0000
  C   C191      1.0  0.60948  0.89016  0.92595  1.0000
  C   C192      1.0  0.61939  0.90992  0.84452  1.0000
  H   H111      1.0  0.61148  0.94559  0.77569  1.0000
  O  Te7       1.0  0.54169  0.91397  0.07054  1.0000
  O  Te8       1.0  0.57344  0.87243  0.08263  1.0000
  H   H112      1.0  0.63918  0.90939  0.78616  1.0000
  Mg  Mg4       1.0  0.53740  0.88236  0.16576  1.0000
  C   C193      1.0  0.13367  0.19374  0.95479  1.0000
  C   C194      1.0  0.13838  0.17345  0.02222  1.0000
  C  Sn9       1.0  0.16191  0.16982  0.11696  1.0000
  C  Sn10      1.0  0.18012  0.18854  0.14453  1.0000
  C   C195      1.0  0.17433  0.21044  0.07663  1.0000
  C   C196      1.0  0.15162  0.21223  0.98197  1.0000
  H   H113      1.0  0.11541  0.19641  0.88162  1.0000
  O  Te9       1.0  0.16719  0.14777  0.18337  1.0000
  O  Te10      1.0  0.20377  0.18540  0.23879  1.0000
  H   H114      1.0  0.14728  0.22923  0.92987  1.0000
  Mg  Mg5       1.0  0.20208  0.15214  0.30318  1.0000
  C   C197      1.0  0.63514  0.69339  0.04283  1.0000
  C   C198      1.0  0.63951  0.67119  0.95539  1.0000
  C  Sn11      1.0  0.66283  0.66792  0.86030  1.0000
  C  Sn12      1.0  0.68301  0.68556  0.85289  1.0000
  C   C199      1.0  0.67935  0.70604  0.94091  1.0000
  C   C200      1.0  0.65504  0.71080  0.03564  1.0000
  H   H115      1.0  0.61703  0.69578  0.11619  1.0000
  O  Te11      1.0  0.66599  0.64729  0.77365  1.0000
  O  Te12      1.0  0.70653  0.68274  0.75886  1.0000
  H   H116      1.0  0.65236  0.72670  0.10341  1.0000
  Mg  Mg6       1.0  0.70155  0.65157  0.66262  1.0000
  C   C201      1.0  0.88871  0.91833  0.81484  1.0000
  C   C202      1.0  0.89143  0.89512  0.86466  1.0000
  C  Sn13      1.0  0.91366  0.88812  0.96161  1.0000
  C  Sn14      1.0  0.93260  0.90637  0.00942  1.0000
  C   C203      1.0  0.93057  0.92790  0.95903  1.0000
  C   C204      1.0  0.90825  0.93471  0.86199  1.0000
  H   H117      1.0  0.87144  0.92361  0.73983  1.0000
  O  Te13      1.0  0.91519  0.86651  0.01026  1.0000
  O  Te14      1.0  0.95501  0.89985  0.10633  1.0000
  H   H118      1.0  0.90614  0.95269  0.82353  1.0000
  Mg  Mg7       1.0  0.94933  0.86610  0.14173  1.0000
  C   C205      1.0  0.60296  0.57286  0.80041  1.0000
  C   C206      1.0  0.58086  0.56998  0.90657  1.0000
  C  Sn15      1.0  0.57103  0.59014  0.00210  1.0000
  C  Sn16      1.0  0.58537  0.61026  0.99084  1.0000
  C   C207      1.0  0.60745  0.61297  0.88417  1.0000
  C   C208      1.0  0.61624  0.59434  0.78918  1.0000
  H   H119      1.0  0.60975  0.55845  0.72684  1.0000
  O  Te15      1.0  0.54892  0.58696  0.10758  1.0000
  O  Te16      1.0  0.57596  0.63070  0.08487  1.0000
  H   H120      1.0  0.63334  0.59658  0.70691  1.0000
  Mg  Mg8       1.0  0.54488  0.61778  0.21066  1.0000
  C   C209      1.0  0.85607  0.70306  0.04754  1.0000
  C   C210      1.0  0.83284  0.70641  0.96160  1.0000
  C  Sn17      1.0  0.82042  0.68943  0.86543  1.0000
  C  Sn18      1.0  0.83240  0.66704  0.85537  1.0000
  C   C211      1.0  0.85652  0.66219  0.94190  1.0000
  C   C212      1.0  0.86790  0.68097  0.03774  1.0000
  H   H121      1.0  0.86555  0.71631  0.12176  1.0000
  O  Te17      1.0  0.79633  0.69473  0.78032  1.0000
  O  Te18      1.0  0.82041  0.64974  0.76020  1.0000
  H   H122      1.0  0.88656  0.67708  0.10434  1.0000
  Mg  Mg9       1.0  0.78769  0.66535  0.66685  1.0000
  C   C213      1.0  0.32640  0.17130  0.16317  1.0000
  C   C214      1.0  0.35019  0.16683  0.07486  1.0000
  C  Sn19      1.0  0.36311  0.18272  0.97995  1.0000
  C  Sn20      1.0  0.35105  0.20516  0.97360  1.0000
  C   C215      1.0  0.32638  0.21112  0.06248  1.0000
  C   C216      1.0  0.31451  0.19342  0.15703  1.0000
  H   H123      1.0  0.31723  0.15762  0.23639  1.0000
  O  Te19      1.0  0.38687  0.17796  0.89243  1.0000
  O  Te20      1.0  0.36265  0.22302  0.87977  1.0000
  H   H124      1.0  0.29610  0.19689  0.22547  1.0000
  Mg  Mg10      1.0  0.39503  0.20800  0.78207  1.0000
  C   C217      1.0  0.11339  0.41905  0.22446  1.0000
  C   C218      1.0  0.11007  0.39651  0.16556  1.0000
  C  Sn21      1.0  0.08802  0.39121  0.06312  1.0000
  C  Sn22      1.0  0.06898  0.40884  0.01899  1.0000
  C   C219      1.0  0.07250  0.43135  0.07845  1.0000
  C   C220      1.0  0.09463  0.43646  0.18094  1.0000
  H   H125      1.0  0.13053  0.42301  0.30368  1.0000
  O  Te21      1.0  0.08499  0.36860  0.00542  1.0000
  O  Te22      1.0  0.04765  0.40237  0.91673  1.0000
  H   H126      1.0  0.09721  0.45392  0.22643  1.0000
  Mg  Mg11      1.0  0.05228  0.36892  0.86939  1.0000
  C   C221      1.0  0.42259  0.11010  0.99154  1.0000
  C   C222      1.0  0.39761  0.11231  0.08259  1.0000
  C  Sn23      1.0  0.38930  0.09275  0.17238  1.0000
  C  Sn24      1.0  0.40547  0.07227  0.17078  1.0000
  C   C223      1.0  0.42955  0.07189  0.07938  1.0000
  C   C224      1.0  0.43855  0.08991  0.98994  1.0000
  H   H127      1.0  0.42888  0.12532  0.92240  1.0000
  O  Te23      1.0  0.36517  0.09360  0.26265  1.0000
  O  Te24      1.0  0.39765  0.05247  0.25946  1.0000
  H   H128      1.0  0.45721  0.08948  0.91953  1.0000
  Mg  Mg12      1.0  0.36308  0.06217  0.36363  1.0000
  C   C225      1.0  0.85695  0.79585  0.04194  1.0000
  C   C226      1.0  0.83191  0.79095  0.97354  1.0000
  C  Sn25      1.0  0.81996  0.80839  0.87618  1.0000
  C  Sn26      1.0  0.83428  0.82944  0.84695  1.0000
  C   C227      1.0  0.86022  0.83251  0.91584  1.0000
  C   C228      1.0  0.87110  0.81661  0.01311  1.0000
  H   H129      1.0  0.86606  0.78226  0.11713  1.0000
  O  Te25      1.0  0.79404  0.80487  0.80884  1.0000
  O  Te26      1.0  0.82282  0.84715  0.75007  1.0000
  H   H130      1.0  0.89118  0.81911  0.06597  1.0000
  Mg  Mg13      1.0  0.78699  0.83415  0.68532  1.0000
  C   C229      1.0  0.36448  0.30729  0.94937  1.0000
  C   C230      1.0  0.35899  0.33064  0.01968  1.0000
  C  Sn27      1.0  0.33579  0.33438  0.11492  1.0000
  C  Sn28      1.0  0.31688  0.31604  0.14007  1.0000
  C   C231      1.0  0.32168  0.29440  0.06929  1.0000
  C   C232      1.0  0.34585  0.28919  0.97416  1.0000
  H   H131      1.0  0.38250  0.30454  0.87584  1.0000
  O  Te27      1.0  0.33150  0.35616  0.18422  1.0000
  O  Te28      1.0  0.29352  0.31930  0.23477  1.0000
  H   H132      1.0  0.34941  0.27239  0.91983  1.0000
  Mg  Mg14      1.0  0.29665  0.35209  0.30350  1.0000
  C   C233      1.0  0.10420  0.07168  0.19110  1.0000
  C   C234      1.0  0.07961  0.06984  0.10440  1.0000
  C  Sn29      1.0  0.07011  0.08845  0.00816  1.0000
  C  Sn30      1.0  0.08645  0.10761  0.99876  1.0000
  C   C235      1.0  0.11015  0.11092  0.08588  1.0000
  C   C236      1.0  0.11946  0.09219  0.18185  1.0000
  H   H133      1.0  0.11142  0.05718  0.26529  1.0000
  O  Te29      1.0  0.04638  0.08467  0.92237  1.0000
  O  Te30      1.0  0.07743  0.12647  0.90346  1.0000
  H   H134      1.0  0.13851  0.09361  0.24888  1.0000
  Mg  Mg15      1.0  0.04262  0.11517  0.80911  1.0000
  C   C237      1.0  0.43494  0.39818  0.99896  1.0000
  C   C238      1.0  0.43066  0.42300  0.04440  1.0000
  C  Sn31      1.0  0.40723  0.42989  0.12806  1.0000
  C  Sn32      1.0  0.38684  0.41323  0.16682  1.0000
  C   C239      1.0  0.39044  0.39010  0.12093  1.0000
  C   C240      1.0  0.41396  0.38339  0.03720  1.0000
  H   H135      1.0  0.45314  0.39298  0.93425  1.0000
  O  Te31      1.0  0.40416  0.45311  0.17249  1.0000
  O  Te32      1.0  0.36323  0.41964  0.25041  1.0000
  H   H136      1.0  0.41659  0.36545  0.00213  1.0000
  Mg  Mg16      1.0  0.36839  0.45337  0.28482  1.0000
  C   C241      1.0  0.14276  0.29612  0.45868  1.0000
  C   C242      1.0  0.16865  0.29218  0.52634  1.0000
  C  Sn33      1.0  0.18079  0.30883  0.62660  1.0000
  C  Sn34      1.0  0.16668  0.32981  0.65954  1.0000
  C   C243      1.0  0.14077  0.33358  0.59135  1.0000
  C   C244      1.0  0.12882  0.31680  0.49116  1.0000
  H   H137      1.0  0.13350  0.28314  0.38124  1.0000
  O  Te33      1.0  0.20668  0.30461  0.69315  1.0000
  O  Te34      1.0  0.17833  0.34674  0.75936  1.0000
  H   H138      1.0  0.10876  0.31985  0.43888  1.0000
  Mg  Mg17      1.0  0.21403  0.33298  0.82163  1.0000
  C   C245      1.0  0.64495  0.79527  0.55720  1.0000
  C   C246      1.0  0.66841  0.79108  0.46508  1.0000
  C  Sn35      1.0  0.67967  0.80875  0.36784  1.0000
  C  Sn36      1.0  0.66718  0.83101  0.36304  1.0000
  C   C247      1.0  0.64373  0.83503  0.45574  1.0000
  C   C248      1.0  0.63262  0.81722  0.55258  1.0000
  H   H139      1.0  0.63636  0.78149  0.63220  1.0000
  O  Te35      1.0  0.70311  0.80427  0.27652  1.0000
  O  Te36      1.0  0.67802  0.84899  0.26695  1.0000
  H   H140      1.0  0.61447  0.82047  0.62398  1.0000
  Mg  Mg18      1.0  0.71021  0.83437  0.16423  1.0000
  C   C249      1.0  0.88394  0.58021  0.29240  1.0000
  C   C250      1.0  0.88647  0.60230  0.36051  1.0000
  C  Sn37      1.0  0.90983  0.60813  0.45017  1.0000
  C  Sn38      1.0  0.93101  0.59152  0.47180  1.0000
  C   C251      1.0  0.92830  0.56948  0.40307  1.0000
  C   C252      1.0  0.90484  0.56382  0.31362  1.0000
  H   H141      1.0  0.86580  0.57584  0.22311  1.0000
  O  Te37      1.0  0.91202  0.63027  0.51744  1.0000
  O  Te38      1.0  0.95458  0.59690  0.56080  1.0000
  H   H142      1.0  0.90289  0.54673  0.26081  1.0000
  Mg  Mg19      1.0  0.94807  0.62936  0.62877  1.0000
  C   C253      1.0  0.56749  0.89880  0.54003  1.0000
  C   C254      1.0  0.56975  0.92184  0.48571  1.0000
  C  Sn39      1.0  0.59136  0.92856  0.38443  1.0000
  C  Sn40      1.0  0.61103  0.91185  0.33681  1.0000
  C   C255      1.0  0.60858  0.88884  0.39172  1.0000
  C   C256      1.0  0.58688  0.88231  0.49307  1.0000
  H   H143      1.0  0.55069  0.89374  0.61838  1.0000
  O  Te39      1.0  0.59331  0.95166  0.33132  1.0000
  O  Te40      1.0  0.63283  0.91809  0.23562  1.0000
  H   H144      1.0  0.58512  0.86446  0.53502  1.0000
  Mg  Mg20      1.0  0.62670  0.95170  0.19503  1.0000
  C   C257      1.0  0.17298  0.16937  0.65725  1.0000
  C   C258      1.0  0.14725  0.16594  0.58669  1.0000
  C  Sn41      1.0  0.13536  0.18329  0.48827  1.0000
  C  Sn42      1.0  0.14954  0.20444  0.46016  1.0000
  C   C259      1.0  0.17529  0.20769  0.53121  1.0000
  C   C260      1.0  0.18699  0.19022  0.62954  1.0000
  H   H145      1.0  0.18205  0.15585  0.73325  1.0000
  O  Te41      1.0  0.10963  0.17958  0.41877  1.0000
  O  Te42      1.0  0.13814  0.22206  0.36226  1.0000
  H   H146      1.0  0.20692  0.19287  0.68406  1.0000
  Mg  Mg21      1.0  0.10259  0.20881  0.29455  1.0000
  C   C261      1.0  0.63578  0.69211  0.53904  1.0000
  C   C262      1.0  0.63877  0.67193  0.44686  1.0000
  C  Sn43      1.0  0.66200  0.66871  0.35086  1.0000
  C  Sn44      1.0  0.68259  0.68603  0.34737  1.0000
  C   C263      1.0  0.67942  0.70614  0.44013  1.0000
  C   C264      1.0  0.65608  0.70920  0.53572  1.0000
  H   H147      1.0  0.61774  0.69447  0.61308  1.0000
  O  Te43      1.0  0.66466  0.64845  0.25946  1.0000
  O  Te44      1.0  0.70602  0.68324  0.25254  1.0000
  H   H148      1.0  0.65378  0.72481  0.60716  1.0000
  Mg  Mg22      1.0  0.70030  0.65264  0.14917  1.0000
  C   C265      1.0  0.93140  0.90035  0.50924  1.0000
  C   C266      1.0  0.93022  0.92243  0.43605  1.0000
  C  Sn45      1.0  0.90803  0.92869  0.33640  1.0000
  C  Sn46      1.0  0.88665  0.91253  0.30979  1.0000
  C   C267      1.0  0.88802  0.89050  0.38366  1.0000
  C   C268      1.0  0.91032  0.88440  0.48311  1.0000
  H   H149      1.0  0.94865  0.89564  0.58627  1.0000
  O  Te45      1.0  0.90718  0.95082  0.26417  1.0000
  O  Te46      1.0  0.86424  0.91834  0.21080  1.0000
  H   H150      1.0  0.91122  0.86732  0.53985  1.0000
  Mg  Mg23      1.0  0.87237  0.95060  0.13927  1.0000
  C   C269      1.0  0.61542  0.58006  0.33033  1.0000
  C   C270      1.0  0.61161  0.60352  0.36651  1.0000
  C  Sn47      1.0  0.58760  0.61088  0.44191  1.0000
  C  Sn48      1.0  0.56706  0.59442  0.48173  1.0000
  C   C271      1.0  0.57108  0.57098  0.44513  1.0000
  C   C272      1.0  0.59518  0.56380  0.36962  1.0000
  H   H151      1.0  0.63407  0.57449  0.27199  1.0000
  O  Te47      1.0  0.58411  0.63439  0.47714  1.0000
  O  Te48      1.0  0.54287  0.60131  0.55718  1.0000
  H   H152      1.0  0.59813  0.54563  0.34172  1.0000
  Mg  Mg24      1.0  0.54762  0.63528  0.58059  1.0000
  C   C273      1.0  0.85671  0.70179  0.54375  1.0000
  C   C274      1.0  0.83260  0.70720  0.45898  1.0000
  C  Sn49      1.0  0.81979  0.69050  0.36213  1.0000
  C  Sn50      1.0  0.83138  0.66798  0.35021  1.0000
  C   C275      1.0  0.85550  0.66273  0.43559  1.0000
  C   C276      1.0  0.86815  0.67957  0.53211  1.0000
  H   H153      1.0  0.86649  0.71481  0.61850  1.0000
  O  Te49      1.0  0.79572  0.69620  0.27821  1.0000
  O  Te50      1.0  0.81900  0.65095  0.25434  1.0000
  H   H154      1.0  0.88680  0.67537  0.59781  1.0000
  Mg  Mg25      1.0  0.78646  0.66709  0.16314  1.0000
  C   C277      1.0  0.32855  0.17103  0.66661  1.0000
  C   C278      1.0  0.35204  0.16636  0.57597  1.0000
  C  Sn51      1.0  0.36340  0.18355  0.47488  1.0000
  C  Sn52      1.0  0.35097  0.20581  0.46463  1.0000
  C   C279      1.0  0.32749  0.21031  0.55590  1.0000
  C   C280      1.0  0.31629  0.19298  0.65663  1.0000
  H   H155      1.0  0.31989  0.15762  0.74463  1.0000
  O  Te51      1.0  0.38687  0.17859  0.38511  1.0000
  O  Te52      1.0  0.36191  0.22331  0.36461  1.0000
  H   H156      1.0  0.29811  0.19661  0.72688  1.0000
  Mg  Mg26      1.0  0.39411  0.20814  0.26599  1.0000
  C   C281      1.0  0.06627  0.39933  0.51083  1.0000
  C   C282      1.0  0.06790  0.42160  0.57678  1.0000
  C  Sn53      1.0  0.09104  0.42832  0.66530  1.0000
  C  Sn54      1.0  0.11293  0.41240  0.68797  1.0000
  C   C283      1.0  0.11111  0.39017  0.62139  1.0000
  C   C284      1.0  0.08786  0.38362  0.53307  1.0000
  H   H157      1.0  0.04829  0.39427  0.44241  1.0000
  O  Te53      1.0  0.09233  0.45064  0.73041  1.0000
  O  Te54      1.0  0.13630  0.41867  0.77586  1.0000
  H   H158      1.0  0.08661  0.36638  0.48193  1.0000
  Mg  Mg27      1.0  0.12845  0.45104  0.84092  1.0000
  C   C285      1.0  0.38897  0.08160  0.67559  1.0000
  C   C286      1.0  0.39202  0.10519  0.63722  1.0000
  C  Sn55      1.0  0.41498  0.11296  0.55173  1.0000
  C  Sn56      1.0  0.43524  0.09678  0.50387  1.0000
  C   C287      1.0  0.43199  0.07322  0.54273  1.0000
  C   C288      1.0  0.40894  0.06563  0.62838  1.0000
  H   H159      1.0  0.37113  0.07572  0.74177  1.0000
  O  Te55      1.0  0.41770  0.13659  0.51444  1.0000
  O  Te56      1.0  0.45839  0.10408  0.41826  1.0000
  H   H160      1.0  0.40658  0.04736  0.65797  1.0000
  Mg  Mg28      1.0  0.45289  0.13807  0.39592  1.0000
  C   C289      1.0  0.86549  0.80678  0.54652  1.0000
  C   C290      1.0  0.86232  0.82708  0.45236  1.0000
  C  Sn57      1.0  0.83895  0.83038  0.35562  1.0000
  C  Sn58      1.0  0.81842  0.81302  0.35338  1.0000
  C   C291      1.0  0.82178  0.79278  0.44810  1.0000
  C   C292      1.0  0.84525  0.78965  0.54443  1.0000
  H   H161      1.0  0.88364  0.80436  0.62112  1.0000
  O  Te57      1.0  0.83611  0.85076  0.26225  1.0000
  O  Te58      1.0  0.79486  0.81588  0.25784  1.0000
  H   H162      1.0  0.84769  0.77393  0.61740  1.0000
  Mg  Mg29      1.0  0.80035  0.84664  0.15168  1.0000
  C   C293      1.0  0.36491  0.30689  0.44796  1.0000
  C   C294      1.0  0.35980  0.32876  0.51427  1.0000
  C  Sn59      1.0  0.33646  0.33249  0.60830  1.0000
  C  Sn60      1.0  0.31792  0.31395  0.63628  1.0000
  C   C295      1.0  0.32322  0.29214  0.56950  1.0000
  C   C296      1.0  0.34664  0.28860  0.47555  1.0000
  H   H163      1.0  0.38303  0.30415  0.37534  1.0000
  O  Te59      1.0  0.33167  0.35444  0.67359  1.0000
  O  Te60      1.0  0.29443  0.31720  0.72985  1.0000
  H   H164      1.0  0.35059  0.27166  0.42432  1.0000
  Mg  Mg30      1.0  0.29683  0.35027  0.79278  1.0000
  C   C297      1.0  0.10387  0.06954  0.64054  1.0000
  C   C298      1.0  0.07685  0.07037  0.58465  1.0000
  C  Sn61      1.0  0.06577  0.09122  0.52483  1.0000
  C  Sn62      1.0  0.08208  0.11157  0.52100  1.0000
  C   C299      1.0  0.10909  0.11056  0.57709  1.0000
  C   C300      1.0  0.11997  0.08961  0.63675  1.0000
  H   H165      1.0  0.11230  0.05334  0.68662  1.0000
  O  Te61      1.0  0.03874  0.09174  0.46951  1.0000
  O  Te62      1.0  0.07151  0.13263  0.46177  1.0000
  H   H166      1.0  0.14090  0.08897  0.67992  1.0000
  Mg  Mg31      1.0  0.03357  0.12457  0.40001  1.0000
  C   C301      1.0  0.43262  0.39934  0.46742  1.0000
  C   C302      1.0  0.43093  0.42194  0.52759  1.0000
  C  Sn63      1.0  0.41010  0.42799  0.63568  1.0000
  C  Sn64      1.0  0.39063  0.41105  0.68425  1.0000
  C   C303      1.0  0.39251  0.38848  0.62346  1.0000
  C   C304      1.0  0.41343  0.38262  0.51532  1.0000
  H   H167      1.0  0.44882  0.39480  0.38382  1.0000
  O  Te63      1.0  0.40871  0.45065  0.69458  1.0000
  O  Te64      1.0  0.36960  0.41661  0.79218  1.0000
  H   H168      1.0  0.41474  0.36512  0.46884  1.0000
  Mg  Mg32      1.0  0.37630  0.44982  0.83901  1.0000
