data_image0
_chemical_formula_structural       C9H5C9H5C10NSNH2CN2CH2C9H5C3HC10NSNH2CN2CH2C9H5C9H5C10NSNH2CN2CH2C9H5C9H5C16NSNH6CN2CH2C2HC2HC2HC2HC3HC9H5C16NSNH6CN2CH2C9H5C3HC16NSNH6CN2CH2C3HC9H5C10NSNH2CN2CH2C9H5C9H5C16NSNH6CN2CH2C2HC2HC2HC2HC2Sn2C2HTe2HMgC2Sn2C2HTe2HMgC2Sn2C2HTe2HMgC2Sn2C2HTe2HMgC2Sn2C2HTe2HMgC2Sn2C2HTe2HMgC2Sn2C2HTe2HMgC2Sn2C2HTe2HMgC2Sn2C2HTe2HMgC2Sn2C2HTe2HMgC2Sn2C2HTe2HMgC2Sn2C2HTe2HMgC2Sn2C2HTe2HMgC2Sn2C2HTe2HMgC2Sn2C2HTe2HMgC2Sn2C2HTe2HMg
_chemical_formula_sum              "C320 H152 N32 S8 Sn32 Te32 Mg16"
_cell_length_a       51.715
_cell_length_b       55.2782
_cell_length_c       8.03601
_cell_angle_alpha    89.6563
_cell_angle_beta     91.9006
_cell_angle_gamma    90.0425

_symmetry_space_group_name_H-M    'P1'
_space_group_IT_number       1

loop_
  _space_group_symop_operation_xyz
  'x, y, z'

loop_
  _atom_site_type_symbol
  _atom_site_label
  _atom_site_symmetry_multiplicity
  _atom_site_fract_x
  _atom_site_fract_y
  _atom_site_fract_z
  _atom_site_occupancy
  C   C1        1.0  0.52923  0.52282  0.06752  1.0000
  C   C2        1.0  0.48788  0.54406  0.05055  1.0000
  C   C3        1.0  0.44693  0.52195  0.10697  1.0000
  C   C4        1.0  0.43075  0.54392  0.10981  1.0000
  C   C5        1.0  0.40664  0.54381  0.02318  1.0000
  C   C6        1.0  0.39054  0.56389  0.02211  1.0000
  C   C7        1.0  0.39773  0.58507  0.10844  1.0000
  C   C8        1.0  0.42187  0.58534  0.19555  1.0000
  C   C9        1.0  0.43791  0.56514  0.19654  1.0000
  H   H1        1.0  0.47699  0.56064  0.02934  1.0000
  H   H2        1.0  0.40105  0.52799  0.95067  1.0000
  H   H3        1.0  0.37224  0.56390  0.95148  1.0000
  H   H4        1.0  0.42790  0.60126  0.26570  1.0000
  H   H5        1.0  0.45595  0.56532  0.27007  1.0000
  C   C10       1.0  0.02922  0.02265  0.95093  1.0000
  C   C11       1.0  0.98834  0.04388  0.98278  1.0000
  C   C12       1.0  0.94635  0.02197  0.93974  1.0000
  C   C13       1.0  0.93015  0.04395  0.93856  1.0000
  C   C14       1.0  0.93650  0.06547  0.85382  1.0000
  C   C15       1.0  0.92044  0.08564  0.85502  1.0000
  C   C16       1.0  0.89710  0.08511  0.94107  1.0000
  C   C17       1.0  0.89064  0.06361  0.02474  1.0000
  C   C18       1.0  0.90670  0.04353  0.02282  1.0000
  H   H6        1.0  0.97802  0.06043  0.00984  1.0000
  H   H7        1.0  0.95385  0.06598  0.78112  1.0000
  H   H8        1.0  0.92586  0.10170  0.78548  1.0000
  H   H9        1.0  0.87301  0.06341  0.09486  1.0000
  H   H10       1.0  0.90167  0.02748  0.09373  1.0000
  C   C19       1.0  0.19362  0.79937  0.93366  1.0000
  C   C20       1.0  0.21006  0.78367  0.95694  1.0000
  C   C21       1.0  0.22966  0.76644  0.98375  1.0000
  C   C22       1.0  0.25283  0.77244  0.07846  1.0000
  C   C23       1.0  0.27323  0.75482  0.10555  1.0000
  C   C24       1.0  0.27068  0.73078  0.04065  1.0000
  C   C25       1.0  0.24794  0.72575  0.94721  1.0000
  C   C26       1.0  0.22820  0.74291  0.91967  1.0000
  C   C27       1.0  0.28992  0.71330  0.07056  1.0000
  C   C28       1.0  0.30651  0.69781  0.09612  1.0000
  N   N1        1.0  0.29376  0.76343  0.19493  1.0000
  S   S1        1.0  0.28678  0.79145  0.23763  1.0000
  N   N2        1.0  0.25811  0.79411  0.14834  1.0000
  H   H11       1.0  0.24580  0.70784  0.89301  1.0000
  H   H12       1.0  0.21116  0.73804  0.84417  1.0000
  C   C29       1.0  0.12049  0.87586  0.85844  1.0000
  N   N3        1.0  0.12329  0.89543  0.94496  1.0000
  N   N4        1.0  0.37994  0.60410  0.09644  1.0000
  C   C30       1.0  0.38197  0.62358  0.18472  1.0000
  H   H13       1.0  0.89476  0.12626  0.76687  1.0000
  H   H14       1.0  0.60879  0.37418  0.26267  1.0000
  C   C31       1.0  0.47435  0.47734  0.08250  1.0000
  C   C32       1.0  0.51498  0.45615  0.04213  1.0000
  C   C33       1.0  0.55723  0.47823  0.07677  1.0000
  C   C34       1.0  0.57347  0.45625  0.07826  1.0000
  C   C35       1.0  0.59695  0.45636  0.99398  1.0000
  C   C36       1.0  0.61302  0.43622  0.99550  1.0000
  C   C37       1.0  0.60628  0.41483  0.08008  1.0000
  C   C38       1.0  0.58269  0.41450  0.16315  1.0000
  C   C39       1.0  0.56692  0.43486  0.16383  1.0000
  H   H15       1.0  0.52510  0.43950  0.01515  1.0000
  H   H16       1.0  0.60201  0.47218  0.92059  1.0000
  H   H17       1.0  0.63086  0.43623  0.92746  1.0000
  H   H18       1.0  0.57680  0.39837  0.23029  1.0000
  H   H19       1.0  0.54958  0.43457  0.23665  1.0000
  C   C40       1.0  0.97406  0.97725  0.95021  1.0000
  C   C41       1.0  0.01530  0.95587  0.97374  1.0000
  C   C42       1.0  0.05694  0.97811  0.93798  1.0000
  H   H20       1.0  0.02591  0.93909  0.99304  1.0000
  C   C43       1.0  0.80762  0.19928  0.94394  1.0000
  C   C44       1.0  0.79101  0.21459  0.96604  1.0000
  C   C45       1.0  0.77147  0.23161  0.99127  1.0000
  C   C46       1.0  0.74874  0.22515  0.07970  1.0000
  C   C47       1.0  0.72852  0.24269  0.10526  1.0000
  C   C48       1.0  0.73070  0.26699  0.04363  1.0000
  C   C49       1.0  0.75303  0.27245  0.95635  1.0000
  C   C50       1.0  0.77260  0.25542  0.93055  1.0000
  C   C51       1.0  0.71155  0.28441  0.06980  1.0000
  C   C52       1.0  0.69529  0.30010  0.09089  1.0000
  N   N5        1.0  0.70832  0.23367  0.18795  1.0000
  S   S2        1.0  0.71540  0.20539  0.22663  1.0000
  N   N6        1.0  0.74367  0.20310  0.14398  1.0000
  H   H21       1.0  0.75503  0.29062  0.90562  1.0000
  H   H22       1.0  0.78918  0.26067  0.85874  1.0000
  C   C53       1.0  0.88053  0.12356  0.86400  1.0000
  N   N7        1.0  0.87959  0.10423  0.95553  1.0000
  N   N8        1.0  0.62368  0.39555  0.06892  1.0000
  C   C54       1.0  0.62280  0.37654  0.16370  1.0000
  H   H23       1.0  0.10411  0.87266  0.77052  1.0000
  H   H24       1.0  0.39765  0.62689  0.27745  1.0000
  C   C55       1.0  0.52967  0.47781  0.06672  1.0000
  C   C56       1.0  0.48861  0.45589  0.04997  1.0000
  C   C57       1.0  0.44721  0.47735  0.10557  1.0000
  C   C58       1.0  0.43117  0.45526  0.10899  1.0000
  C   C59       1.0  0.40698  0.45534  0.02331  1.0000
  C   C60       1.0  0.39077  0.43533  0.02613  1.0000
  C   C61       1.0  0.39805  0.41414  0.11368  1.0000
  C   C62       1.0  0.42221  0.41398  0.20082  1.0000
  C   C63       1.0  0.43833  0.43413  0.19818  1.0000
  H   H25       1.0  0.47815  0.43904  0.02992  1.0000
  H   H26       1.0  0.40140  0.47114  0.94933  1.0000
  H   H27       1.0  0.37224  0.43537  0.95797  1.0000
  H   H28       1.0  0.42811  0.39830  0.27504  1.0000
  H   H29       1.0  0.45644  0.43401  0.27091  1.0000
  C   C64       1.0  0.02954  0.97768  0.94982  1.0000
  C   C65       1.0  0.98887  0.95567  0.97456  1.0000
  C   C66       1.0  0.94652  0.97730  0.93621  1.0000
  C   C67       1.0  0.93035  0.95524  0.93123  1.0000
  C   C68       1.0  0.93677  0.93418  0.84305  1.0000
  C   C69       1.0  0.92071  0.91398  0.83935  1.0000
  C   C70       1.0  0.89708  0.91402  0.92254  1.0000
  C   C71       1.0  0.89045  0.93513  0.00857  1.0000
  C   C72       1.0  0.90668  0.95514  0.01326  1.0000
  H   H30       1.0  0.97879  0.93877  0.99649  1.0000
  H   H31       1.0  0.95414  0.93410  0.77043  1.0000
  H   H32       1.0  0.92626  0.89841  0.76647  1.0000
  H   H33       1.0  0.87248  0.93499  0.07507  1.0000
  H   H34       1.0  0.90148  0.97074  0.08689  1.0000
  C   C73       1.0  0.19041  0.20354  0.93172  1.0000
  C   C74       1.0  0.20744  0.21863  0.95609  1.0000
  C   C75       1.0  0.22772  0.23508  0.98427  1.0000
  C   C76       1.0  0.25063  0.22807  0.07865  1.0000
  C   C77       1.0  0.27178  0.24491  0.10549  1.0000
  C   C78       1.0  0.27038  0.26905  0.03921  1.0000
  C   C79       1.0  0.24777  0.27508  0.94711  1.0000
  C   C80       1.0  0.22724  0.25876  0.92079  1.0000
  C   C81       1.0  0.29049  0.28576  0.06653  1.0000
  C   C82       1.0  0.30768  0.30068  0.09125  1.0000
  N   N9        1.0  0.29193  0.23547  0.19505  1.0000
  S   S3        1.0  0.28375  0.20766  0.23786  1.0000
  N   N10       1.0  0.25502  0.20613  0.14847  1.0000
  H   H35       1.0  0.24635  0.29308  0.89253  1.0000
  H   H36       1.0  0.21037  0.26447  0.84637  1.0000
  C   C83       1.0  0.11862  0.12612  0.84886  1.0000
  N   N11       1.0  0.12074  0.10704  0.94252  1.0000
  N   N12       1.0  0.38008  0.39524  0.10389  1.0000
  C   C84       1.0  0.38398  0.37429  0.17321  1.0000
  H   H37       1.0  0.89862  0.87063  0.77727  1.0000
  H   H38       1.0  0.60544  0.62804  0.26124  1.0000
  C   C85       1.0  0.47405  0.52231  0.08376  1.0000
  C   C86       1.0  0.51423  0.54430  0.04242  1.0000
  C   C87       1.0  0.55676  0.52293  0.07813  1.0000
  C   C88       1.0  0.57250  0.54521  0.08088  1.0000
  C   C89       1.0  0.59621  0.54561  0.99919  1.0000
  C   C90       1.0  0.61179  0.56606  0.00050  1.0000
  C   C91       1.0  0.60448  0.58720  0.08382  1.0000
  C   C92       1.0  0.58075  0.58701  0.16544  1.0000
  C   C93       1.0  0.56535  0.56638  0.16527  1.0000
  H   H39       1.0  0.52404  0.56112  0.01390  1.0000
  H   H40       1.0  0.60189  0.52988  0.92831  1.0000
  H   H41       1.0  0.62973  0.56645  0.93363  1.0000
  H   H42       1.0  0.57455  0.60288  0.23288  1.0000
  H   H43       1.0  0.54789  0.56632  0.23704  1.0000
  C   C94       1.0  0.97385  0.02224  0.95397  1.0000
  C   C95       1.0  0.01475  0.04411  0.97993  1.0000
  C   C96       1.0  0.05657  0.02275  0.93606  1.0000
  C   C97       1.0  0.07220  0.04512  0.93189  1.0000
  C   C98       1.0  0.06449  0.06601  0.84137  1.0000
  C   C99       1.0  0.07972  0.08677  0.84089  1.0000
  C   C100      1.0  0.10370  0.08742  0.92979  1.0000
  C   C101      1.0  0.11157  0.06652  0.01854  1.0000
  C   C102      1.0  0.09627  0.04588  0.01906  1.0000
  H   H44       1.0  0.02513  0.06090  0.00302  1.0000
  H   H45       1.0  0.04664  0.06558  0.76599  1.0000
  H   H46       1.0  0.07313  0.10235  0.76795  1.0000
  H   H47       1.0  0.12983  0.06725  0.08926  1.0000
  H   H48       1.0  0.10247  0.03032  0.09357  1.0000
  C   C103      1.0  0.86278  0.85564  0.86745  1.0000
  C   C104      1.0  0.86750  0.83253  0.80183  1.0000
  C   C105      1.0  0.84963  0.81392  0.81677  1.0000
  C   C106      1.0  0.82619  0.81802  0.89749  1.0000
  C   C107      1.0  0.82125  0.84139  0.96133  1.0000
  C   C108      1.0  0.83925  0.85972  0.94681  1.0000
  C   C109      1.0  0.80783  0.79951  0.91800  1.0000
  C   C110      1.0  0.79120  0.78418  0.94077  1.0000
  C   C111      1.0  0.77133  0.76760  0.96985  1.0000
  C   C112      1.0  0.74894  0.77493  0.05810  1.0000
  C   C113      1.0  0.72830  0.75801  0.08950  1.0000
  C   C114      1.0  0.72960  0.73352  0.03251  1.0000
  C   C115      1.0  0.75166  0.72717  0.94570  1.0000
  C   C116      1.0  0.77177  0.74354  0.91555  1.0000
  C   C117      1.0  0.70995  0.71673  0.06321  1.0000
  C   C118      1.0  0.69327  0.70157  0.08945  1.0000
  N   N13       1.0  0.70868  0.76774  0.17340  1.0000
  S   S4        1.0  0.71677  0.79590  0.20607  1.0000
  N   N14       1.0  0.74476  0.79726  0.11872  1.0000
  H   H49       1.0  0.88537  0.82930  0.73772  1.0000
  H   H50       1.0  0.85327  0.79616  0.76516  1.0000
  H   H51       1.0  0.80321  0.84441  0.02382  1.0000
  H   H52       1.0  0.83585  0.87758  0.99760  1.0000
  H   H53       1.0  0.75293  0.70880  0.89895  1.0000
  H   H54       1.0  0.78819  0.73759  0.84519  1.0000
  C   C119      1.0  0.88198  0.87477  0.85388  1.0000
  N   N15       1.0  0.87913  0.89512  0.93014  1.0000
  N   N16       1.0  0.62164  0.60667  0.07412  1.0000
  C   C120      1.0  0.62007  0.62571  0.16641  1.0000
  H   H55       1.0  0.10350  0.12848  0.75058  1.0000
  H   H56       1.0  0.40172  0.36944  0.24518  1.0000
  C   C121      1.0  0.43460  0.49956  0.12187  1.0000
  C   C122      1.0  0.51569  0.50018  0.07326  1.0000
  H   H57       1.0  0.41415  0.49945  0.14911  1.0000
  C   C123      1.0  0.56969  0.50070  0.08629  1.0000
  C   C124      1.0  0.48803  0.49993  0.08130  1.0000
  H   H58       1.0  0.59061  0.50091  0.10423  1.0000
  C   C125      1.0  0.93376  0.99961  0.92795  1.0000
  C   C126      1.0  0.01552  0.00006  0.94863  1.0000
  H   H59       1.0  0.91285  0.99959  0.90884  1.0000
  C   C127      1.0  0.06944  0.00052  0.92852  1.0000
  C   C128      1.0  0.98778  0.99984  0.94929  1.0000
  H   H60       1.0  0.09021  0.00064  0.91136  1.0000
  C   C129      1.0  0.52628  0.52257  0.57235  1.0000
  C   C130      1.0  0.48502  0.54393  0.55238  1.0000
  C   C131      1.0  0.44371  0.52183  0.60059  1.0000
  H   H61       1.0  0.47430  0.56061  0.53138  1.0000
  C   C132      1.0  0.02638  0.02188  0.44716  1.0000
  C   C133      1.0  0.98598  0.04362  0.48468  1.0000
  C   C134      1.0  0.94351  0.02220  0.44741  1.0000
  C   C135      1.0  0.92764  0.04442  0.44542  1.0000
  C   C136      1.0  0.93441  0.06575  0.35973  1.0000
  C   C137      1.0  0.91887  0.08629  0.36059  1.0000
  C   C138      1.0  0.89536  0.08622  0.44472  1.0000
  C   C139      1.0  0.88838  0.06487  0.52859  1.0000
  C   C140      1.0  0.90410  0.04453  0.52897  1.0000
  H   H62       1.0  0.97599  0.06033  0.51178  1.0000
  H   H63       1.0  0.95169  0.06587  0.28617  1.0000
  H   H64       1.0  0.92484  0.10225  0.29190  1.0000
  H   H65       1.0  0.87058  0.06500  0.59687  1.0000
  H   H66       1.0  0.89866  0.02871  0.60093  1.0000
  C   C141      1.0  0.19087  0.79904  0.42679  1.0000
  C   C142      1.0  0.20805  0.78409  0.45201  1.0000
  C   C143      1.0  0.22822  0.76755  0.48186  1.0000
  C   C144      1.0  0.25104  0.77430  0.57782  1.0000
  C   C145      1.0  0.27187  0.75719  0.60856  1.0000
  C   C146      1.0  0.27026  0.73303  0.54473  1.0000
  C   C147      1.0  0.24783  0.72732  0.44999  1.0000
  C   C148      1.0  0.22765  0.74390  0.41977  1.0000
  C   C149      1.0  0.28993  0.71594  0.57593  1.0000
  C   C150      1.0  0.30651  0.70038  0.60023  1.0000
  C   C151      1.0  0.32475  0.68156  0.62177  1.0000
  C   C152      1.0  0.34722  0.68414  0.72515  1.0000
  C   C153      1.0  0.36447  0.66498  0.74572  1.0000
  C   C154      1.0  0.36029  0.64297  0.66155  1.0000
  C   C155      1.0  0.33803  0.64053  0.55670  1.0000
  C   C156      1.0  0.32049  0.65931  0.53798  1.0000
  N   N17       1.0  0.29199  0.76641  0.69891  1.0000
  S   S5        1.0  0.28419  0.79437  0.73779  1.0000
  N   N18       1.0  0.25566  0.79621  0.64589  1.0000
  H   H67       1.0  0.24619  0.70929  0.39713  1.0000
  H   H68       1.0  0.21091  0.73837  0.34385  1.0000
  H   H69       1.0  0.35048  0.70106  0.79092  1.0000
  H   H70       1.0  0.38138  0.66688  0.82897  1.0000
  H   H71       1.0  0.33508  0.62354  0.49126  1.0000
  H   H72       1.0  0.30336  0.65738  0.45702  1.0000
  C   C157      1.0  0.11772  0.87523  0.33756  1.0000
  N   N19       1.0  0.11871  0.89366  0.43608  1.0000
  N   N20       1.0  0.37768  0.60480  0.58272  1.0000
  C   C158      1.0  0.37858  0.62302  0.68330  1.0000
  H   H73       1.0  0.89414  0.12772  0.27169  1.0000
  H   H74       1.0  0.60609  0.37396  0.76712  1.0000
  C   C159      1.0  0.47128  0.47720  0.58271  1.0000
  C   C160      1.0  0.51203  0.45596  0.54534  1.0000
  C   C161      1.0  0.55414  0.47794  0.58490  1.0000
  C   C162      1.0  0.57040  0.45599  0.58752  1.0000
  C   C163      1.0  0.59398  0.45632  0.50455  1.0000
  C   C164      1.0  0.61006  0.43622  0.50411  1.0000
  C   C165      1.0  0.60341  0.41470  0.58696  1.0000
  C   C166      1.0  0.57983  0.41419  0.67026  1.0000
  C   C167      1.0  0.56392  0.43447  0.67187  1.0000
  H   H75       1.0  0.52226  0.43945  0.51637  1.0000
  H   H76       1.0  0.59910  0.47228  0.43308  1.0000
  H   H77       1.0  0.62783  0.43645  0.43557  1.0000
  H   H78       1.0  0.57403  0.39797  0.73665  1.0000
  H   H79       1.0  0.54651  0.43399  0.74412  1.0000
  C   C168      1.0  0.97079  0.97719  0.45783  1.0000
  C   C169      1.0  0.01179  0.95535  0.47704  1.0000
  C   C170      1.0  0.05331  0.97694  0.42465  1.0000
  H   H80       1.0  0.02230  0.93856  0.49856  1.0000
  C   C171      1.0  0.80667  0.20088  0.44332  1.0000
  C   C172      1.0  0.78985  0.21596  0.46635  1.0000
  C   C173      1.0  0.77015  0.23280  0.49200  1.0000
  C   C174      1.0  0.74750  0.22627  0.58109  1.0000
  C   C175      1.0  0.72719  0.24373  0.60662  1.0000
  C   C176      1.0  0.72910  0.26796  0.54316  1.0000
  C   C177      1.0  0.75135  0.27348  0.45530  1.0000
  C   C178      1.0  0.77112  0.25659  0.43093  1.0000
  C   C179      1.0  0.70981  0.28526  0.56860  1.0000
  C   C180      1.0  0.69350  0.30084  0.59118  1.0000
  C   C181      1.0  0.67533  0.31944  0.61380  1.0000
  C   C182      1.0  0.65260  0.31548  0.70314  1.0000
  C   C183      1.0  0.63495  0.33414  0.72232  1.0000
  C   C184      1.0  0.63902  0.35712  0.65082  1.0000
  C   C185      1.0  0.66171  0.36102  0.56176  1.0000
  C   C186      1.0  0.67961  0.34270  0.54447  1.0000
  N   N21       1.0  0.70720  0.23468  0.69113  1.0000
  S   S6        1.0  0.71446  0.20647  0.73087  1.0000
  N   N22       1.0  0.74263  0.20426  0.64664  1.0000
  H   H81       1.0  0.75303  0.29157  0.40275  1.0000
  H   H82       1.0  0.78777  0.26186  0.35974  1.0000
  H   H83       1.0  0.64941  0.29779  0.75879  1.0000
  H   H84       1.0  0.61772  0.33101  0.79378  1.0000
  H   H85       1.0  0.66465  0.37875  0.50621  1.0000
  H   H86       1.0  0.69702  0.34577  0.47506  1.0000
  C   C187      1.0  0.87954  0.12498  0.36652  1.0000
  N   N23       1.0  0.87812  0.10558  0.45690  1.0000
  N   N24       1.0  0.62095  0.39556  0.57488  1.0000
  C   C188      1.0  0.62023  0.37651  0.66932  1.0000
  H   H87       1.0  0.10353  0.87345  0.23350  1.0000
  H   H88       1.0  0.39250  0.62439  0.78943  1.0000
  C   C189      1.0  0.52661  0.47760  0.57219  1.0000
  C   C190      1.0  0.48565  0.45575  0.55149  1.0000
  C   C191      1.0  0.44402  0.47713  0.60217  1.0000
  H   H89       1.0  0.47517  0.43897  0.53005  1.0000
  C   C192      1.0  0.02609  0.97690  0.44553  1.0000
  C   C193      1.0  0.98541  0.95550  0.48359  1.0000
  C   C194      1.0  0.94326  0.97751  0.44561  1.0000
  C   C195      1.0  0.92720  0.95545  0.43955  1.0000
  C   C196      1.0  0.93425  0.93448  0.35257  1.0000
  C   C197      1.0  0.91867  0.91398  0.34919  1.0000
  C   C198      1.0  0.89498  0.91370  0.43127  1.0000
  C   C199      1.0  0.88760  0.93479  0.51485  1.0000
  C   C200      1.0  0.90331  0.95514  0.51895  1.0000
  H   H90       1.0  0.97523  0.93884  0.51111  1.0000
  H   H91       1.0  0.95178  0.93475  0.28151  1.0000
  H   H92       1.0  0.92465  0.89836  0.27846  1.0000
  H   H93       1.0  0.86952  0.93433  0.57996  1.0000
  H   H94       1.0  0.89762  0.97079  0.59048  1.0000
  C   C201      1.0  0.19068  0.19994  0.44228  1.0000
  C   C202      1.0  0.20759  0.21519  0.46524  1.0000
  C   C203      1.0  0.22772  0.23185  0.49237  1.0000
  C   C204      1.0  0.25065  0.22511  0.58767  1.0000
  C   C205      1.0  0.27165  0.24212  0.61433  1.0000
  C   C206      1.0  0.27022  0.26612  0.54564  1.0000
  C   C207      1.0  0.24759  0.27191  0.45281  1.0000
  C   C208      1.0  0.22715  0.25545  0.42721  1.0000
  C   C209      1.0  0.29031  0.28292  0.57030  1.0000
  C   C210      1.0  0.30723  0.29823  0.59091  1.0000
  N   N25       1.0  0.29183  0.23288  0.70456  1.0000
  S   S7        1.0  0.28392  0.20501  0.74774  1.0000
  N   N26       1.0  0.25522  0.20324  0.65818  1.0000
  H   H95       1.0  0.24610  0.28986  0.39728  1.0000
  H   H96       1.0  0.21028  0.26097  0.35185  1.0000
  C   C211      1.0  0.11795  0.12357  0.34872  1.0000
  N   N27       1.0  0.11923  0.10471  0.44484  1.0000
  N   N28       1.0  0.37925  0.39326  0.58604  1.0000
  C   C212      1.0  0.38035  0.37447  0.68289  1.0000
  H   H97       1.0  0.89527  0.87181  0.26477  1.0000
  H   H98       1.0  0.60474  0.62696  0.76318  1.0000
  C   C213      1.0  0.47097  0.52219  0.58232  1.0000
  C   C214      1.0  0.51141  0.54410  0.54691  1.0000
  C   C215      1.0  0.55379  0.52262  0.58474  1.0000
  C   C216      1.0  0.56972  0.54478  0.58639  1.0000
  C   C217      1.0  0.59325  0.54475  0.50283  1.0000
  C   C218      1.0  0.60926  0.56490  0.50271  1.0000
  C   C219      1.0  0.60254  0.58617  0.58642  1.0000
  C   C220      1.0  0.57900  0.58642  0.67029  1.0000
  C   C221      1.0  0.56313  0.56609  0.67115  1.0000
  H   H99       1.0  0.52140  0.56093  0.52103  1.0000
  H   H100      1.0  0.59841  0.52891  0.43148  1.0000
  H   H101      1.0  0.62707  0.56495  0.43450  1.0000
  H   H102      1.0  0.57337  0.60239  0.73867  1.0000
  H   H103      1.0  0.54577  0.56637  0.74393  1.0000
  C   C222      1.0  0.97106  0.02217  0.45862  1.0000
  C   C223      1.0  0.01237  0.04350  0.47891  1.0000
  C   C224      1.0  0.05359  0.02158  0.42661  1.0000
  C   C225      1.0  0.06966  0.04364  0.42426  1.0000
  C   C226      1.0  0.06231  0.06492  0.33738  1.0000
  C   C227      1.0  0.07797  0.08541  0.33979  1.0000
  C   C228      1.0  0.10194  0.08533  0.42882  1.0000
  C   C229      1.0  0.10941  0.06407  0.51481  1.0000
  C   C230      1.0  0.09372  0.04369  0.51173  1.0000
  H   H104      1.0  0.02308  0.06015  0.50062  1.0000
  H   H105      1.0  0.04434  0.06504  0.26315  1.0000
  H   H106      1.0  0.07170  0.10143  0.27028  1.0000
  H   H107      1.0  0.12758  0.06438  0.58690  1.0000
  H   H108      1.0  0.09952  0.02782  0.58437  1.0000
  C   C231      1.0  0.86132  0.85521  0.37198  1.0000
  C   C232      1.0  0.86508  0.83268  0.29549  1.0000
  C   C233      1.0  0.84723  0.81407  0.31183  1.0000
  C   C234      1.0  0.82476  0.81764  0.40392  1.0000
  C   C235      1.0  0.82089  0.84043  0.47958  1.0000
  C   C236      1.0  0.83893  0.85868  0.46459  1.0000
  C   C237      1.0  0.80622  0.79927  0.42387  1.0000
  C   C238      1.0  0.78937  0.78419  0.44796  1.0000
  C   C239      1.0  0.76961  0.76744  0.47601  1.0000
  C   C240      1.0  0.74713  0.77421  0.56547  1.0000
  C   C241      1.0  0.72662  0.75697  0.59323  1.0000
  C   C242      1.0  0.72833  0.73263  0.53377  1.0000
  C   C243      1.0  0.75046  0.72683  0.44604  1.0000
  C   C244      1.0  0.77032  0.74356  0.41818  1.0000
  C   C245      1.0  0.70901  0.71544  0.56324  1.0000
  C   C246      1.0  0.69270  0.69991  0.58873  1.0000
  N   N29       1.0  0.70670  0.76623  0.67656  1.0000
  S   S8        1.0  0.71433  0.79439  0.71312  1.0000
  N   N30       1.0  0.74254  0.79630  0.62887  1.0000
  H   H109      1.0  0.88210  0.82996  0.22156  1.0000
  H   H110      1.0  0.85009  0.79677  0.25157  1.0000
  H   H111      1.0  0.80365  0.84311  0.55097  1.0000
  H   H112      1.0  0.83639  0.87610  0.52401  1.0000
  H   H113      1.0  0.75208  0.70862  0.39703  1.0000
  H   H114      1.0  0.78686  0.73797  0.34770  1.0000
  C   C247      1.0  0.88000  0.87472  0.35470  1.0000
  N   N31       1.0  0.87783  0.89425  0.44128  1.0000
  N   N32       1.0  0.62008  0.60535  0.57435  1.0000
  C   C248      1.0  0.61914  0.62439  0.66705  1.0000
  H   H115      1.0  0.10358  0.12570  0.24568  1.0000
  H   H116      1.0  0.39427  0.37264  0.78878  1.0000
  C   C249      1.0  0.43129  0.49940  0.61288  1.0000
  C   C250      1.0  0.51265  0.49998  0.57686  1.0000
  H   H117      1.0  0.41061  0.49931  0.63344  1.0000
  C   C251      1.0  0.56664  0.50036  0.59443  1.0000
  C   C252      1.0  0.48495  0.49979  0.58209  1.0000
  H   H118      1.0  0.58756  0.50053  0.61303  1.0000
  C   C253      1.0  0.93067  0.99993  0.43786  1.0000
  C   C254      1.0  0.01241  0.99947  0.44719  1.0000
  H   H119      1.0  0.90974  0.99999  0.42011  1.0000
  C   C255      1.0  0.06599  0.99924  0.41275  1.0000
  C   C256      1.0  0.98472  0.99961  0.45327  1.0000
  H   H120      1.0  0.08658  0.99924  0.38944  1.0000
  C   C257      1.0  0.67902  0.34786  0.02110  1.0000
  C   C258      1.0  0.67958  0.32504  0.09693  1.0000
  C  Sn1       1.0  0.65933  0.31765  0.19634  1.0000
  C  Sn2       1.0  0.63817  0.33343  0.22000  1.0000
  C   C259      1.0  0.63778  0.35622  0.14350  1.0000
  C   C260      1.0  0.65815  0.36343  0.04432  1.0000
  H   H121      1.0  0.69992  0.35257  0.94429  1.0000
  O  Te1       1.0  0.66020  0.29479  0.27123  1.0000
  O  Te2       1.0  0.61767  0.32650  0.31867  1.0000
  H   H122      1.0  0.66286  0.38022  0.98553  1.0000
  Mg  Mg1       1.0  0.62768  0.29357  0.39452  1.0000
  C   C261      1.0  0.32345  0.34910  0.05394  1.0000
  C   C262      1.0  0.32530  0.32445  0.09205  1.0000
  C  Sn3       1.0  0.34754  0.31524  0.17298  1.0000
  C  Sn4       1.0  0.36828  0.33105  0.21645  1.0000
  C   C263      1.0  0.36623  0.35568  0.17788  1.0000
  C   C264      1.0  0.34390  0.36471  0.09682  1.0000
  H   H123      1.0  0.31132  0.35522  0.99130  1.0000
  O  Te3       1.0  0.34907  0.29056  0.21008  1.0000
  O  Te4       1.0  0.39072  0.32233  0.29745  1.0000
  H   H124      1.0  0.34247  0.38380  0.06743  1.0000
  Mg  Mg2       1.0  0.38364  0.28729  0.32145  1.0000
  C   C265      1.0  0.38919  0.44067  0.50703  1.0000
  C   C266      1.0  0.39422  0.41781  0.57585  1.0000
  C  Sn5       1.0  0.41687  0.41368  0.67135  1.0000
  C  Sn6       1.0  0.43478  0.43283  0.69826  1.0000
  C   C267      1.0  0.42957  0.45564  0.62897  1.0000
  C   C268      1.0  0.40684  0.45957  0.53357  1.0000
  H   H125      1.0  0.37161  0.44372  0.43329  1.0000
  O  Te5       1.0  0.42159  0.39073  0.73915  1.0000
  O  Te6       1.0  0.45757  0.42920  0.79326  1.0000
  H   H126      1.0  0.40295  0.47728  0.48039  1.0000
  Mg  Mg3       1.0  0.45536  0.39472  0.85951  1.0000
  C   C269      1.0  0.66672  0.64211  0.53954  1.0000
  C   C270      1.0  0.64427  0.64189  0.63172  1.0000
  C  Sn7       1.0  0.63633  0.66279  0.71242  1.0000
  C  Sn8       1.0  0.65117  0.68429  0.70033  1.0000
  C   C271      1.0  0.67358  0.68433  0.60771  1.0000
  C   C272      1.0  0.68136  0.66331  0.52751  1.0000
  H   H127      1.0  0.67273  0.62585  0.47740  1.0000
  O  Te7       1.0  0.61386  0.66225  0.80405  1.0000
  O  Te8       1.0  0.64367  0.70544  0.77969  1.0000
  H   H128      1.0  0.69873  0.66349  0.45605  1.0000
  Mg  Mg4       1.0  0.61158  0.69567  0.88995  1.0000
  C   C273      1.0  0.14367  0.18242  0.29605  1.0000
  C   C274      1.0  0.16578  0.18329  0.40066  1.0000
  C  Sn9       1.0  0.17395  0.16270  0.48935  1.0000
  C  Sn10      1.0  0.15968  0.14087  0.47269  1.0000
  C   C275      1.0  0.13760  0.14018  0.36762  1.0000
  C   C276      1.0  0.12959  0.16089  0.27950  1.0000
  H   H129      1.0  0.13748  0.19843  0.22779  1.0000
  O  Te9       1.0  0.19607  0.16389  0.59338  1.0000
  O  Te10      1.0  0.16741  0.12002  0.55983  1.0000
  H   H130      1.0  0.11248  0.16020  0.19842  1.0000
  Mg  Mg5       1.0  0.19886  0.13068  0.68626  1.0000
  C   C277      1.0  0.36547  0.67243  0.23400  1.0000
  C   C278      1.0  0.36382  0.64800  0.19116  1.0000
  C  Sn11      1.0  0.34218  0.63931  0.10144  1.0000
  C  Sn12      1.0  0.32187  0.65542  0.05386  1.0000
  C   C279      1.0  0.32372  0.67983  0.09722  1.0000
  C   C280      1.0  0.34545  0.68833  0.18706  1.0000
  H   H131      1.0  0.38229  0.67902  0.30343  1.0000
  O  Te11      1.0  0.34083  0.61485  0.05971  1.0000
  O  Te12      1.0  0.30519  0.64634  0.96408  1.0000
  H   H132      1.0  0.34674  0.70725  0.22012  1.0000
  Mg  Mg6       1.0  0.31229  0.61143  0.93653  1.0000
  C   C281      1.0  0.33461  0.35502  0.52394  1.0000
  C   C282      1.0  0.35614  0.35618  0.63340  1.0000
  C  Sn13      1.0  0.36320  0.33615  0.73144  1.0000
  C  Sn14      1.0  0.34840  0.31457  0.71937  1.0000
  C   C283      1.0  0.32691  0.31358  0.60939  1.0000
  C   C284      1.0  0.32001  0.33374  0.51191  1.0000
  H   H133      1.0  0.32927  0.37061  0.44844  1.0000
  O  Te13      1.0  0.38476  0.33762  0.84020  1.0000
  O  Te14      1.0  0.35504  0.29427  0.81586  1.0000
  H   H134      1.0  0.30335  0.33282  0.42709  1.0000
  Mg  Mg7       1.0  0.38606  0.30516  0.94576  1.0000
  C   C285      1.0  0.06272  0.92732  0.31907  1.0000
  C   C286      1.0  0.06632  0.94911  0.40408  1.0000
  C  Sn15      1.0  0.08903  0.95319  0.49879  1.0000
  C  Sn16      1.0  0.10847  0.93508  0.50830  1.0000
  C   C287      1.0  0.10469  0.91336  0.42269  1.0000
  C   C288      1.0  0.08188  0.90946  0.32832  1.0000
  H   H135      1.0  0.04508  0.92431  0.24597  1.0000
  O  Te15      1.0  0.09231  0.97505  0.58300  1.0000
  O  Te16      1.0  0.13136  0.93869  0.60200  1.0000
  H   H136      1.0  0.07911  0.89260  0.26242  1.0000
  Mg  Mg8       1.0  0.12683  0.97147  0.69455  1.0000
  C   C289      1.0  0.14480  0.81653  0.81275  1.0000
  C   C290      1.0  0.16990  0.81696  0.88260  1.0000
  C  Sn17      1.0  0.17960  0.83799  0.95738  1.0000
  C  Sn18      1.0  0.16383  0.85895  0.96216  1.0000
  C   C291      1.0  0.13873  0.85833  0.89203  1.0000
  C   C292      1.0  0.12922  0.83719  0.81747  1.0000
  H   H137      1.0  0.13744  0.80017  0.75513  1.0000
  O  Te17      1.0  0.19958  0.83898  0.02651  1.0000
  O  Te18      1.0  0.16788  0.88108  0.03617  1.0000
  H   H138      1.0  0.10978  0.83685  0.76349  1.0000
  Mg  Mg9       1.0  0.20342  0.87230  0.11339  1.0000
  C   C293      1.0  0.83353  0.14153  0.99661  1.0000
  C   C294      1.0  0.85582  0.14125  0.90299  1.0000
  C  Sn19      1.0  0.86378  0.16216  0.82062  1.0000
  C  Sn20      1.0  0.84912  0.18372  0.83247  1.0000
  C   C295      1.0  0.82686  0.18382  0.92655  1.0000
  C   C296      1.0  0.81391  0.16366  0.00843  1.0000
  H   H139      1.0  0.82236  0.12613  0.06004  1.0000
  O  Te19      1.0  0.88610  0.16156  0.72755  1.0000
  O  Te20      1.0  0.85664  0.20488  0.75146  1.0000
  H   H140      1.0  0.79666  0.16389  0.08100  1.0000
  Mg  Mg10      1.0  0.88847  0.19501  0.63965  1.0000
  C   C297      1.0  0.83241  0.14308  0.49636  1.0000
  C   C298      1.0  0.85478  0.14275  0.40347  1.0000
  C  Sn21      1.0  0.86286  0.16364  0.32141  1.0000
  C  Sn22      1.0  0.84825  0.18524  0.33282  1.0000
  C   C299      1.0  0.82591  0.18540  0.42616  1.0000
  C   C300      1.0  0.81799  0.16438  0.50773  1.0000
  H   H141      1.0  0.82629  0.12683  0.55956  1.0000
  O  Te21      1.0  0.88525  0.16299  0.22909  1.0000
  O  Te22      1.0  0.85589  0.20639  0.25209  1.0000
  H   H142      1.0  0.80068  0.16465  0.57973  1.0000
  Mg  Mg11      1.0  0.88779  0.19643  0.14133  1.0000
  C   C301      1.0  0.39719  0.54673  0.50266  1.0000
  C   C302      1.0  0.42209  0.54381  0.57277  1.0000
  C  Sn23      1.0  0.43351  0.56228  0.66774  1.0000
  C  Sn24      1.0  0.41969  0.58405  0.69281  1.0000
  C   C303      1.0  0.39479  0.58678  0.62224  1.0000
  C   C304      1.0  0.38355  0.56819  0.52738  1.0000
  H   H143      1.0  0.38849  0.53234  0.42934  1.0000
  O  Te23      1.0  0.45841  0.55907  0.73684  1.0000
  O  Te24      1.0  0.43064  0.60279  0.78723  1.0000
  H   H144      1.0  0.36426  0.57045  0.47320  1.0000
  Mg  Mg12      1.0  0.46509  0.58984  0.85577  1.0000
  C   C305      1.0  0.13491  0.82746  0.26223  1.0000
  C   C306      1.0  0.13416  0.84981  0.34221  1.0000
  C  Sn25      1.0  0.15417  0.85660  0.45342  1.0000
  C  Sn26      1.0  0.17530  0.84067  0.48485  1.0000
  C   C307      1.0  0.17587  0.81835  0.40412  1.0000
  C   C308      1.0  0.15575  0.81174  0.29311  1.0000
  H   H145      1.0  0.11935  0.82235  0.17627  1.0000
  O  Te25      1.0  0.15312  0.87899  0.53230  1.0000
  O  Te26      1.0  0.19556  0.84700  0.59537  1.0000
  H   H146      1.0  0.15634  0.79444  0.23113  1.0000
  Mg  Mg13      1.0  0.18534  0.87946  0.67248  1.0000
  C   C309      1.0  0.63687  0.67426  0.23359  1.0000
  C   C310      1.0  0.63646  0.65120  0.16313  1.0000
  C  Sn27      1.0  0.65692  0.64350  0.06728  1.0000
  C  Sn28      1.0  0.67815  0.65921  0.04175  1.0000
  C   C311      1.0  0.67838  0.68223  0.11287  1.0000
  C   C312      1.0  0.65781  0.68976  0.20853  1.0000
  H   H147      1.0  0.62096  0.68008  0.30768  1.0000
  O  Te27      1.0  0.66135  0.61955  0.99774  1.0000
  O  Te28      1.0  0.70400  0.65110  0.94654  1.0000
  H   H148      1.0  0.65814  0.70760  0.26315  1.0000
  Mg  Mg14      1.0  0.69413  0.61794  0.87763  1.0000
  C   C313      1.0  0.06775  0.92947  0.82313  1.0000
  C   C314      1.0  0.07025  0.95045  0.91852  1.0000
  C  Sn29      1.0  0.08681  0.95468  0.02396  1.0000
  C  Sn30      1.0  0.10635  0.93668  0.03380  1.0000
  C   C315      1.0  0.10883  0.91490  0.93777  1.0000
  C   C316      1.0  0.08702  0.91171  0.83270  1.0000
  H   H149      1.0  0.05088  0.92701  0.74177  1.0000
  O  Te29      1.0  0.08899  0.97574  0.11845  1.0000
  O  Te30      1.0  0.12826  0.93959  0.13812  1.0000
  H   H150      1.0  0.08509  0.89548  0.75878  1.0000
  Mg  Mg15      1.0  0.12244  0.97140  0.24231  1.0000
  C   C317      1.0  0.16677  0.14506  0.97932  1.0000
  C   C318      1.0  0.14216  0.14505  0.90211  1.0000
  C  Sn31      1.0  0.13291  0.16568  0.81847  1.0000
  C  Sn32      1.0  0.14864  0.18669  0.81218  1.0000
  C   C319      1.0  0.17324  0.18651  0.88972  1.0000
  C   C320      1.0  0.18231  0.16576  0.97312  1.0000
  H   H151      1.0  0.16864  0.12987  0.04378  1.0000
  O  Te31      1.0  0.10827  0.16537  0.74206  1.0000
  O  Te32      1.0  0.13988  0.20756  0.72938  1.0000
  H   H152      1.0  0.19622  0.16664  0.03280  1.0000
  Mg  Mg16      1.0  0.10492  0.19825  0.64446  1.0000
