data_image0
_chemical_formula_structural       C3HC3HC10NSNH2CN2CH2C3HC3HC10NSNH2CN2CH2C3HC3HC10NSNH2CN2CH2C3HC3HC10NSNH2CN2CH2C2HC2HC2HC2HC3HC3HC10NSNH2CN2CH2C3HC3HC10NSNH2CN2CH2C3HC3HC10NSNH2CN2CH2C3HC3HC10NSNH2CN2CH2C2HC2HC2HC2HC2Sn2C2HTe2HMgC2Sn2C2HTe2HMgC2Sn2C2HTe2HMgC2Sn2C2HTe2HMgC2Sn2C2HTe2HMgC2Sn2C2HTe2HMgC2Sn2C2HTe2HMgC2Sn2C2HTe2HMgC2Sn2C2HTe2HMgC2Sn2C2HTe2HMgC2Sn2C2HTe2HMgC2Sn2C2HTe2HMgC2Sn2C2HTe2HMgC2Sn2C2HTe2HMgC2Sn2C2HTe2HMgC2Sn2C2HTe2HMgC2Sn2C2HTe2HMgC2Sn2C2HTe2HMgC2Sn2C2HTe2HMgC2Sn2C2HTe2HMgC2Sn2C2HTe2HMgC2Sn2C2HTe2HMgC2Sn2C2HTe2HMgC2Sn2C2HTe2HMgC2Sn2C2HTe2HMgC2Sn2C2HTe2HMgC2Sn2C2HTe2HMgC2Sn2C2HTe2HMgC2Sn2C2HTe2HMgC2Sn2C2HTe2HMgC2Sn2C2HTe2HMgC2Sn2C2HTe2HMg
_chemical_formula_sum              "C288 H120 N32 S8 Sn64 Te64 Mg32"
_cell_length_a       51.715
_cell_length_b       55.2782
_cell_length_c       8.03601
_cell_angle_alpha    89.6563
_cell_angle_beta     91.9006
_cell_angle_gamma    90.0425

_symmetry_space_group_name_H-M    'P1'
_space_group_IT_number       1

loop_
  _space_group_symop_operation_xyz
  'x, y, z'

loop_
  _atom_site_type_symbol
  _atom_site_label
  _atom_site_symmetry_multiplicity
  _atom_site_fract_x
  _atom_site_fract_y
  _atom_site_fract_z
  _atom_site_occupancy
  C   C1        1.0  0.52923  0.52282  0.06752  1.0000
  C   C2        1.0  0.48788  0.54406  0.05055  1.0000
  C   C3        1.0  0.44693  0.52195  0.10697  1.0000
  H   H1        1.0  0.47699  0.56064  0.02934  1.0000
  C   C4        1.0  0.02922  0.02265  0.95093  1.0000
  C   C5        1.0  0.98834  0.04388  0.98278  1.0000
  C   C6        1.0  0.94635  0.02197  0.93974  1.0000
  H   H2        1.0  0.97802  0.06043  0.00984  1.0000
  C   C7        1.0  0.19362  0.79937  0.93366  1.0000
  C   C8        1.0  0.21006  0.78367  0.95694  1.0000
  C   C9        1.0  0.22966  0.76644  0.98375  1.0000
  C   C10       1.0  0.25283  0.77244  0.07846  1.0000
  C   C11       1.0  0.27323  0.75482  0.10555  1.0000
  C   C12       1.0  0.27068  0.73078  0.04065  1.0000
  C   C13       1.0  0.24794  0.72575  0.94721  1.0000
  C   C14       1.0  0.22820  0.74291  0.91967  1.0000
  C   C15       1.0  0.28992  0.71330  0.07056  1.0000
  C   C16       1.0  0.30651  0.69781  0.09612  1.0000
  N   N1        1.0  0.29376  0.76343  0.19493  1.0000
  S   S1        1.0  0.28678  0.79145  0.23763  1.0000
  N   N2        1.0  0.25811  0.79411  0.14834  1.0000
  H   H3        1.0  0.24580  0.70784  0.89301  1.0000
  H   H4        1.0  0.21116  0.73804  0.84417  1.0000
  C   C17       1.0  0.12049  0.87586  0.85844  1.0000
  N   N3        1.0  0.12329  0.89543  0.94496  1.0000
  N   N4        1.0  0.37994  0.60410  0.09644  1.0000
  C   C18       1.0  0.38197  0.62358  0.18472  1.0000
  H   H5        1.0  0.89476  0.12626  0.76687  1.0000
  H   H6        1.0  0.60879  0.37418  0.26267  1.0000
  C   C19       1.0  0.47435  0.47734  0.08250  1.0000
  C   C20       1.0  0.51498  0.45615  0.04213  1.0000
  C   C21       1.0  0.55723  0.47823  0.07677  1.0000
  H   H7        1.0  0.52510  0.43950  0.01515  1.0000
  C   C22       1.0  0.97406  0.97725  0.95021  1.0000
  C   C23       1.0  0.01530  0.95587  0.97374  1.0000
  C   C24       1.0  0.05694  0.97811  0.93798  1.0000
  H   H8        1.0  0.02591  0.93909  0.99304  1.0000
  C   C25       1.0  0.80762  0.19928  0.94394  1.0000
  C   C26       1.0  0.79101  0.21459  0.96604  1.0000
  C   C27       1.0  0.77147  0.23161  0.99127  1.0000
  C   C28       1.0  0.74874  0.22515  0.07970  1.0000
  C   C29       1.0  0.72852  0.24269  0.10526  1.0000
  C   C30       1.0  0.73070  0.26699  0.04363  1.0000
  C   C31       1.0  0.75303  0.27245  0.95635  1.0000
  C   C32       1.0  0.77260  0.25542  0.93055  1.0000
  C   C33       1.0  0.71155  0.28441  0.06980  1.0000
  C   C34       1.0  0.69529  0.30010  0.09089  1.0000
  N   N5        1.0  0.70832  0.23367  0.18795  1.0000
  S   S2        1.0  0.71540  0.20539  0.22663  1.0000
  N   N6        1.0  0.74367  0.20310  0.14398  1.0000
  H   H9        1.0  0.75503  0.29062  0.90562  1.0000
  H   H10       1.0  0.78918  0.26067  0.85874  1.0000
  C   C35       1.0  0.88053  0.12356  0.86400  1.0000
  N   N7        1.0  0.87959  0.10423  0.95553  1.0000
  N   N8        1.0  0.62368  0.39555  0.06892  1.0000
  C   C36       1.0  0.62280  0.37654  0.16370  1.0000
  H   H11       1.0  0.10411  0.87266  0.77052  1.0000
  H   H12       1.0  0.39765  0.62689  0.27745  1.0000
  C   C37       1.0  0.52967  0.47781  0.06672  1.0000
  C   C38       1.0  0.48861  0.45589  0.04997  1.0000
  C   C39       1.0  0.44721  0.47735  0.10557  1.0000
  H   H13       1.0  0.47815  0.43904  0.02992  1.0000
  C   C40       1.0  0.02954  0.97768  0.94982  1.0000
  C   C41       1.0  0.98887  0.95567  0.97456  1.0000
  C   C42       1.0  0.94652  0.97730  0.93621  1.0000
  H   H14       1.0  0.97879  0.93877  0.99649  1.0000
  C   C43       1.0  0.19041  0.20354  0.93172  1.0000
  C   C44       1.0  0.20744  0.21863  0.95609  1.0000
  C   C45       1.0  0.22772  0.23508  0.98427  1.0000
  C   C46       1.0  0.25063  0.22807  0.07865  1.0000
  C   C47       1.0  0.27178  0.24491  0.10549  1.0000
  C   C48       1.0  0.27038  0.26905  0.03921  1.0000
  C   C49       1.0  0.24777  0.27508  0.94711  1.0000
  C   C50       1.0  0.22724  0.25876  0.92079  1.0000
  C   C51       1.0  0.29049  0.28576  0.06653  1.0000
  C   C52       1.0  0.30768  0.30068  0.09125  1.0000
  N   N9        1.0  0.29193  0.23547  0.19505  1.0000
  S   S3        1.0  0.28375  0.20766  0.23786  1.0000
  N   N10       1.0  0.25502  0.20613  0.14847  1.0000
  H   H15       1.0  0.24635  0.29308  0.89253  1.0000
  H   H16       1.0  0.21037  0.26447  0.84637  1.0000
  C   C53       1.0  0.11862  0.12612  0.84886  1.0000
  N   N11       1.0  0.12074  0.10704  0.94252  1.0000
  N   N12       1.0  0.38008  0.39524  0.10389  1.0000
  C   C54       1.0  0.38398  0.37429  0.17321  1.0000
  H   H17       1.0  0.89862  0.87063  0.77727  1.0000
  H   H18       1.0  0.60544  0.62804  0.26124  1.0000
  C   C55       1.0  0.47405  0.52231  0.08376  1.0000
  C   C56       1.0  0.51423  0.54430  0.04242  1.0000
  C   C57       1.0  0.55676  0.52293  0.07813  1.0000
  H   H19       1.0  0.52404  0.56112  0.01390  1.0000
  C   C58       1.0  0.97385  0.02224  0.95397  1.0000
  C   C59       1.0  0.01475  0.04411  0.97993  1.0000
  C   C60       1.0  0.05657  0.02275  0.93606  1.0000
  H   H20       1.0  0.02513  0.06090  0.00302  1.0000
  C   C61       1.0  0.80783  0.79951  0.91800  1.0000
  C   C62       1.0  0.79120  0.78418  0.94077  1.0000
  C   C63       1.0  0.77133  0.76760  0.96985  1.0000
  C   C64       1.0  0.74894  0.77493  0.05810  1.0000
  C   C65       1.0  0.72830  0.75801  0.08950  1.0000
  C   C66       1.0  0.72960  0.73352  0.03251  1.0000
  C   C67       1.0  0.75166  0.72717  0.94570  1.0000
  C   C68       1.0  0.77177  0.74354  0.91555  1.0000
  C   C69       1.0  0.70995  0.71673  0.06321  1.0000
  C   C70       1.0  0.69327  0.70157  0.08945  1.0000
  N   N13       1.0  0.70868  0.76774  0.17340  1.0000
  S   S4        1.0  0.71677  0.79590  0.20607  1.0000
  N   N14       1.0  0.74476  0.79726  0.11872  1.0000
  H   H21       1.0  0.75293  0.70880  0.89895  1.0000
  H   H22       1.0  0.78819  0.73759  0.84519  1.0000
  C   C71       1.0  0.88198  0.87477  0.85388  1.0000
  N   N15       1.0  0.87913  0.89512  0.93014  1.0000
  N   N16       1.0  0.62164  0.60667  0.07412  1.0000
  C   C72       1.0  0.62007  0.62571  0.16641  1.0000
  H   H23       1.0  0.10350  0.12848  0.75058  1.0000
  H   H24       1.0  0.40172  0.36944  0.24518  1.0000
  C   C73       1.0  0.43460  0.49956  0.12187  1.0000
  C   C74       1.0  0.51569  0.50018  0.07326  1.0000
  H   H25       1.0  0.41415  0.49945  0.14911  1.0000
  C   C75       1.0  0.56969  0.50070  0.08629  1.0000
  C   C76       1.0  0.48803  0.49993  0.08130  1.0000
  H   H26       1.0  0.59061  0.50091  0.10423  1.0000
  C   C77       1.0  0.93376  0.99961  0.92795  1.0000
  C   C78       1.0  0.01552  0.00006  0.94863  1.0000
  H   H27       1.0  0.91285  0.99959  0.90884  1.0000
  C   C79       1.0  0.06944  0.00052  0.92852  1.0000
  C   C80       1.0  0.98778  0.99984  0.94929  1.0000
  H   H28       1.0  0.09021  0.00064  0.91136  1.0000
  C   C81       1.0  0.52628  0.52257  0.57235  1.0000
  C   C82       1.0  0.48502  0.54393  0.55238  1.0000
  C   C83       1.0  0.44371  0.52183  0.60059  1.0000
  H   H29       1.0  0.47430  0.56061  0.53138  1.0000
  C   C84       1.0  0.02638  0.02188  0.44716  1.0000
  C   C85       1.0  0.98598  0.04362  0.48468  1.0000
  C   C86       1.0  0.94351  0.02220  0.44741  1.0000
  H   H30       1.0  0.97599  0.06033  0.51178  1.0000
  C   C87       1.0  0.19087  0.79904  0.42679  1.0000
  C   C88       1.0  0.20805  0.78409  0.45201  1.0000
  C   C89       1.0  0.22822  0.76755  0.48186  1.0000
  C   C90       1.0  0.25104  0.77430  0.57782  1.0000
  C   C91       1.0  0.27187  0.75719  0.60856  1.0000
  C   C92       1.0  0.27026  0.73303  0.54473  1.0000
  C   C93       1.0  0.24783  0.72732  0.44999  1.0000
  C   C94       1.0  0.22765  0.74390  0.41977  1.0000
  C   C95       1.0  0.28993  0.71594  0.57593  1.0000
  C   C96       1.0  0.30651  0.70038  0.60023  1.0000
  N   N17       1.0  0.29199  0.76641  0.69891  1.0000
  S   S5        1.0  0.28419  0.79437  0.73779  1.0000
  N   N18       1.0  0.25566  0.79621  0.64589  1.0000
  H   H31       1.0  0.24619  0.70929  0.39713  1.0000
  H   H32       1.0  0.21091  0.73837  0.34385  1.0000
  C   C97       1.0  0.11772  0.87523  0.33756  1.0000
  N   N19       1.0  0.11871  0.89366  0.43608  1.0000
  N   N20       1.0  0.37768  0.60480  0.58272  1.0000
  C   C98       1.0  0.37858  0.62302  0.68330  1.0000
  H   H33       1.0  0.89414  0.12772  0.27169  1.0000
  H   H34       1.0  0.60609  0.37396  0.76712  1.0000
  C   C99       1.0  0.47128  0.47720  0.58271  1.0000
  C   C100      1.0  0.51203  0.45596  0.54534  1.0000
  C   C101      1.0  0.55414  0.47794  0.58490  1.0000
  H   H35       1.0  0.52226  0.43945  0.51637  1.0000
  C   C102      1.0  0.97079  0.97719  0.45783  1.0000
  C   C103      1.0  0.01179  0.95535  0.47704  1.0000
  C   C104      1.0  0.05331  0.97694  0.42465  1.0000
  H   H36       1.0  0.02230  0.93856  0.49856  1.0000
  C   C105      1.0  0.80667  0.20088  0.44332  1.0000
  C   C106      1.0  0.78985  0.21596  0.46635  1.0000
  C   C107      1.0  0.77015  0.23280  0.49200  1.0000
  C   C108      1.0  0.74750  0.22627  0.58109  1.0000
  C   C109      1.0  0.72719  0.24373  0.60662  1.0000
  C   C110      1.0  0.72910  0.26796  0.54316  1.0000
  C   C111      1.0  0.75135  0.27348  0.45530  1.0000
  C   C112      1.0  0.77112  0.25659  0.43093  1.0000
  C   C113      1.0  0.70981  0.28526  0.56860  1.0000
  C   C114      1.0  0.69350  0.30084  0.59118  1.0000
  N   N21       1.0  0.70720  0.23468  0.69113  1.0000
  S   S6        1.0  0.71446  0.20647  0.73087  1.0000
  N   N22       1.0  0.74263  0.20426  0.64664  1.0000
  H   H37       1.0  0.75303  0.29157  0.40275  1.0000
  H   H38       1.0  0.78777  0.26186  0.35974  1.0000
  C   C115      1.0  0.87954  0.12498  0.36652  1.0000
  N   N23       1.0  0.87812  0.10558  0.45690  1.0000
  N   N24       1.0  0.62095  0.39556  0.57488  1.0000
  C   C116      1.0  0.62023  0.37651  0.66932  1.0000
  H   H39       1.0  0.10353  0.87345  0.23350  1.0000
  H   H40       1.0  0.39250  0.62439  0.78943  1.0000
  C   C117      1.0  0.52661  0.47760  0.57219  1.0000
  C   C118      1.0  0.48565  0.45575  0.55149  1.0000
  C   C119      1.0  0.44402  0.47713  0.60217  1.0000
  H   H41       1.0  0.47517  0.43897  0.53005  1.0000
  C   C120      1.0  0.02609  0.97690  0.44553  1.0000
  C   C121      1.0  0.98541  0.95550  0.48359  1.0000
  C   C122      1.0  0.94326  0.97751  0.44561  1.0000
  H   H42       1.0  0.97523  0.93884  0.51111  1.0000
  C   C123      1.0  0.19068  0.19994  0.44228  1.0000
  C   C124      1.0  0.20759  0.21519  0.46524  1.0000
  C   C125      1.0  0.22772  0.23185  0.49237  1.0000
  C   C126      1.0  0.25065  0.22511  0.58767  1.0000
  C   C127      1.0  0.27165  0.24212  0.61433  1.0000
  C   C128      1.0  0.27022  0.26612  0.54564  1.0000
  C   C129      1.0  0.24759  0.27191  0.45281  1.0000
  C   C130      1.0  0.22715  0.25545  0.42721  1.0000
  C   C131      1.0  0.29031  0.28292  0.57030  1.0000
  C   C132      1.0  0.30723  0.29823  0.59091  1.0000
  N   N25       1.0  0.29183  0.23288  0.70456  1.0000
  S   S7        1.0  0.28392  0.20501  0.74774  1.0000
  N   N26       1.0  0.25522  0.20324  0.65818  1.0000
  H   H43       1.0  0.24610  0.28986  0.39728  1.0000
  H   H44       1.0  0.21028  0.26097  0.35185  1.0000
  C   C133      1.0  0.11795  0.12357  0.34872  1.0000
  N   N27       1.0  0.11923  0.10471  0.44484  1.0000
  N   N28       1.0  0.37925  0.39326  0.58604  1.0000
  C   C134      1.0  0.38035  0.37447  0.68289  1.0000
  H   H45       1.0  0.89527  0.87181  0.26477  1.0000
  H   H46       1.0  0.60474  0.62696  0.76318  1.0000
  C   C135      1.0  0.47097  0.52219  0.58232  1.0000
  C   C136      1.0  0.51141  0.54410  0.54691  1.0000
  C   C137      1.0  0.55379  0.52262  0.58474  1.0000
  H   H47       1.0  0.52140  0.56093  0.52103  1.0000
  C   C138      1.0  0.97106  0.02217  0.45862  1.0000
  C   C139      1.0  0.01237  0.04350  0.47891  1.0000
  C   C140      1.0  0.05359  0.02158  0.42661  1.0000
  H   H48       1.0  0.02308  0.06015  0.50062  1.0000
  C   C141      1.0  0.80622  0.79927  0.42387  1.0000
  C   C142      1.0  0.78937  0.78419  0.44796  1.0000
  C   C143      1.0  0.76961  0.76744  0.47601  1.0000
  C   C144      1.0  0.74713  0.77421  0.56547  1.0000
  C   C145      1.0  0.72662  0.75697  0.59323  1.0000
  C   C146      1.0  0.72833  0.73263  0.53377  1.0000
  C   C147      1.0  0.75046  0.72683  0.44604  1.0000
  C   C148      1.0  0.77032  0.74356  0.41818  1.0000
  C   C149      1.0  0.70901  0.71544  0.56324  1.0000
  C   C150      1.0  0.69270  0.69991  0.58873  1.0000
  N   N29       1.0  0.70670  0.76623  0.67656  1.0000
  S   S8        1.0  0.71433  0.79439  0.71312  1.0000
  N   N30       1.0  0.74254  0.79630  0.62887  1.0000
  H   H49       1.0  0.75208  0.70862  0.39703  1.0000
  H   H50       1.0  0.78686  0.73797  0.34770  1.0000
  C   C151      1.0  0.88000  0.87472  0.35470  1.0000
  N   N31       1.0  0.87783  0.89425  0.44128  1.0000
  N   N32       1.0  0.62008  0.60535  0.57435  1.0000
  C   C152      1.0  0.61914  0.62439  0.66705  1.0000
  H   H51       1.0  0.10358  0.12570  0.24568  1.0000
  H   H52       1.0  0.39427  0.37264  0.78878  1.0000
  C   C153      1.0  0.43129  0.49940  0.61288  1.0000
  C   C154      1.0  0.51265  0.49998  0.57686  1.0000
  H   H53       1.0  0.41061  0.49931  0.63344  1.0000
  C   C155      1.0  0.56664  0.50036  0.59443  1.0000
  C   C156      1.0  0.48495  0.49979  0.58209  1.0000
  H   H54       1.0  0.58756  0.50053  0.61303  1.0000
  C   C157      1.0  0.93067  0.99993  0.43786  1.0000
  C   C158      1.0  0.01241  0.99947  0.44719  1.0000
  H   H55       1.0  0.90974  0.99999  0.42011  1.0000
  C   C159      1.0  0.06599  0.99924  0.41275  1.0000
  C   C160      1.0  0.98472  0.99961  0.45327  1.0000
  H   H56       1.0  0.08658  0.99924  0.38944  1.0000
  C   C161      1.0  0.42767  0.58216  0.21417  1.0000
  C   C162      1.0  0.40471  0.58639  0.12212  1.0000
  C  Sn1       1.0  0.39359  0.56806  0.02450  1.0000
  C  Sn2       1.0  0.40573  0.54508  0.01923  1.0000
  C   C163      1.0  0.42869  0.54102  0.11187  1.0000
  C   C164      1.0  0.43966  0.55950  0.20909  1.0000
  H   H57       1.0  0.43615  0.59645  0.28947  1.0000
  O  Te1       1.0  0.37579  0.57172  0.93326  1.0000
  O  Te2       1.0  0.40018  0.52556  0.92275  1.0000
  H   H58       1.0  0.45743  0.55621  0.28043  1.0000
  Mg  Mg1       1.0  0.36869  0.54055  0.82033  1.0000
  C   C165      1.0  0.90098  0.04662  0.04057  1.0000
  C   C166      1.0  0.92858  0.04193  0.95222  1.0000
  C  Sn3       1.0  0.93892  0.06059  0.85701  1.0000
  C  Sn4       1.0  0.92652  0.08348  0.85041  1.0000
  C   C167      1.0  0.90408  0.08712  0.93935  1.0000
  C   C168      1.0  0.88874  0.06919  0.03418  1.0000
  H   H59       1.0  0.89310  0.03208  0.11403  1.0000
  O  Te3       1.0  0.96135  0.05646  0.76945  1.0000
  O  Te4       1.0  0.93644  0.10244  0.75628  1.0000
  H   H60       1.0  0.87137  0.07216  0.10266  1.0000
  Mg  Mg2       1.0  0.96745  0.08796  0.65865  1.0000
  C   C169      1.0  0.16970  0.85780  0.97897  1.0000
  C   C170      1.0  0.14600  0.85824  0.89031  1.0000
  C  Sn5       1.0  0.13645  0.83730  0.81356  1.0000
  C  Sn6       1.0  0.15094  0.81554  0.82604  1.0000
  C   C171      1.0  0.17462  0.81529  0.91511  1.0000
  C   C172      1.0  0.18400  0.83635  0.99139  1.0000
  H   H61       1.0  0.17180  0.87496  0.03807  1.0000
  O  Te5       1.0  0.11273  0.83806  0.72542  1.0000
  O  Te6       1.0  0.14184  0.79435  0.75058  1.0000
  H   H62       1.0  0.19720  0.83687  0.06011  1.0000
  Mg  Mg3       1.0  0.10848  0.80449  0.64416  1.0000
  C   C173      1.0  0.32294  0.64992  0.04373  1.0000
  C   C174      1.0  0.32274  0.67319  0.11069  1.0000
  C  Sn7       1.0  0.34414  0.68174  0.20335  1.0000
  C  Sn8       1.0  0.36613  0.66668  0.22921  1.0000
  C   C175      1.0  0.36615  0.64343  0.16160  1.0000
  C   C176      1.0  0.34462  0.63506  0.06912  1.0000
  H   H63       1.0  0.31144  0.64258  0.97210  1.0000
  O  Te7       1.0  0.34362  0.70504  0.26941  1.0000
  O  Te8       1.0  0.38779  0.67477  0.32127  1.0000
  H   H64       1.0  0.34479  0.61705  0.01720  1.0000
  Mg  Mg4       1.0  0.37782  0.70790  0.38605  1.0000
  C   C177      1.0  0.56768  0.42825  0.17300  1.0000
  C   C178      1.0  0.57232  0.45142  0.11016  1.0000
  C  Sn9       1.0  0.59425  0.45593  0.01783  1.0000
  C  Sn10      1.0  0.61697  0.43599  0.98802  1.0000
  C   C179      1.0  0.60699  0.41374  0.05132  1.0000
  C   C180      1.0  0.58499  0.40942  0.14360  1.0000
  H   H65       1.0  0.55065  0.42490  0.24432  1.0000
  O  Te9       1.0  0.60375  0.47832  0.95601  1.0000
  O  Te10      1.0  0.63903  0.44000  0.89608  1.0000
  H   H66       1.0  0.58139  0.39148  0.19215  1.0000
  Mg  Mg5       1.0  0.63654  0.47480  0.83791  1.0000
  C   C181      1.0  0.06775  0.92947  0.82313  1.0000
  C   C182      1.0  0.07025  0.95045  0.91852  1.0000
  C  Sn11      1.0  0.08681  0.95468  0.02396  1.0000
  C  Sn12      1.0  0.10635  0.93668  0.03380  1.0000
  C   C183      1.0  0.10883  0.91490  0.93777  1.0000
  C   C184      1.0  0.08702  0.91171  0.83270  1.0000
  H   H67       1.0  0.05088  0.92701  0.74177  1.0000
  O  Te11      1.0  0.08899  0.97574  0.11845  1.0000
  O  Te12      1.0  0.12826  0.93959  0.13812  1.0000
  H   H68       1.0  0.08509  0.89548  0.75878  1.0000
  Mg  Mg6       1.0  0.12244  0.97140  0.24231  1.0000
  C   C185      1.0  0.82326  0.15109  0.99928  1.0000
  C   C186      1.0  0.82462  0.17522  0.94732  1.0000
  C  Sn13      1.0  0.84528  0.18317  0.85351  1.0000
  C  Sn14      1.0  0.86492  0.16661  0.81106  1.0000
  C   C187      1.0  0.86337  0.14250  0.86354  1.0000
  C   C188      1.0  0.84261  0.13475  0.95741  1.0000
  H   H69       1.0  0.80204  0.14595  0.07183  1.0000
  O  Te13      1.0  0.84635  0.20733  0.80267  1.0000
  O  Te14      1.0  0.88578  0.17406  0.71737  1.0000
  H   H70       1.0  0.84156  0.11606  0.99753  1.0000
  Mg  Mg7       1.0  0.87864  0.20883  0.67717  1.0000
  C   C189      1.0  0.63868  0.32762  0.22559  1.0000
  C   C190      1.0  0.64044  0.35173  0.17381  1.0000
  C  Sn15      1.0  0.66097  0.35928  0.07738  1.0000
  C  Sn16      1.0  0.68006  0.34233  0.03210  1.0000
  C   C191      1.0  0.67812  0.31825  0.08443  1.0000
  C   C192      1.0  0.65750  0.31090  0.18094  1.0000
  H   H71       1.0  0.62272  0.32192  0.30019  1.0000
  O  Te15      1.0  0.66244  0.38343  0.02675  1.0000
  O  Te16      1.0  0.70593  0.34852  0.93575  1.0000
  H   H72       1.0  0.65613  0.29223  0.22092  1.0000
  Mg  Mg8       1.0  0.69949  0.38344  0.89700  1.0000
  C   C193      1.0  0.42869  0.41668  0.21138  1.0000
  C   C194      1.0  0.40374  0.41381  0.14227  1.0000
  C  Sn17      1.0  0.39241  0.43219  0.04466  1.0000
  C  Sn18      1.0  0.40638  0.45384  0.01590  1.0000
  C   C195      1.0  0.43135  0.45653  0.08550  1.0000
  C   C196      1.0  0.44249  0.43802  0.18302  1.0000
  H   H73       1.0  0.43733  0.40236  0.28676  1.0000
  O  Te17      1.0  0.37261  0.42816  0.97661  1.0000
  O  Te18      1.0  0.40068  0.47163  0.91879  1.0000
  H   H74       1.0  0.46182  0.44025  0.23642  1.0000
  Mg  Mg9       1.0  0.36611  0.45878  0.85302  1.0000
  C   C197      1.0  0.92639  0.91722  0.82199  1.0000
  C   C198      1.0  0.90403  0.91270  0.91012  1.0000
  C  Sn19      1.0  0.88840  0.93161  0.00846  1.0000
  C  Sn20      1.0  0.90057  0.95460  0.01848  1.0000
  C   C199      1.0  0.92807  0.95807  0.92974  1.0000
  C   C200      1.0  0.93840  0.93989  0.83175  1.0000
  H   H75       1.0  0.93437  0.90315  0.74610  1.0000
  O  Te19      1.0  0.86605  0.92679  0.09575  1.0000
  O  Te20      1.0  0.89050  0.97296  0.11578  1.0000
  H   H76       1.0  0.95570  0.94340  0.76344  1.0000
  Mg  Mg10      1.0  0.85969  0.95764  0.21165  1.0000
  C   C201      1.0  0.14314  0.18533  0.79203  1.0000
  C   C202      1.0  0.16559  0.18657  0.89324  1.0000
  C  Sn21      1.0  0.17458  0.16609  0.97985  1.0000
  C  Sn22      1.0  0.16078  0.14397  0.96458  1.0000
  C   C203      1.0  0.13835  0.14291  0.86293  1.0000
  C   C204      1.0  0.12952  0.16352  0.77685  1.0000
  H   H77       1.0  0.13632  0.20126  0.72536  1.0000
  O  Te21      1.0  0.19189  0.16852  0.08047  1.0000
  O  Te22      1.0  0.16418  0.12409  0.04971  1.0000
  H   H78       1.0  0.11215  0.16254  0.69842  1.0000
  Mg  Mg11      1.0  0.19582  0.13531  0.17164  1.0000
  C   C205      1.0  0.36723  0.32545  0.22491  1.0000
  C   C206      1.0  0.36684  0.34923  0.16491  1.0000
  C  Sn23      1.0  0.34477  0.35834  0.08148  1.0000
  C  Sn24      1.0  0.32270  0.34332  0.05792  1.0000
  C   C207      1.0  0.32328  0.31956  0.11852  1.0000
  C   C208      1.0  0.34547  0.31063  0.20179  1.0000
  H   H79       1.0  0.38439  0.31854  0.28942  1.0000
  O  Te23      1.0  0.34471  0.38214  0.02227  1.0000
  O  Te24      1.0  0.30554  0.35110  0.97503  1.0000
  H   H80       1.0  0.34576  0.29222  0.24833  1.0000
  Mg  Mg12      1.0  0.31488  0.38479  0.91713  1.0000
  C   C209      1.0  0.57449  0.58409  0.17629  1.0000
  C   C210      1.0  0.59871  0.58769  0.10806  1.0000
  C  Sn25      1.0  0.61005  0.56939  0.01612  1.0000
  C  Sn26      1.0  0.60201  0.54623  0.99222  1.0000
  C   C211      1.0  0.57263  0.54369  0.06090  1.0000
  C   C212      1.0  0.56145  0.56212  0.15273  1.0000
  H   H81       1.0  0.56583  0.59835  0.24727  1.0000
  O  Te25      1.0  0.63942  0.57241  0.94887  1.0000
  O  Te26      1.0  0.61291  0.52764  0.90082  1.0000
  H   H82       1.0  0.54269  0.55934  0.20545  1.0000
  Mg  Mg13      1.0  0.64630  0.54159  0.83390  1.0000
  C   C213      1.0  0.10266  0.04878  0.02956  1.0000
  C   C214      1.0  0.08295  0.04428  0.96068  1.0000
  C  Sn27      1.0  0.07097  0.06231  0.86315  1.0000
  C  Sn28      1.0  0.08416  0.08438  0.83424  1.0000
  C   C215      1.0  0.10903  0.08783  0.90361  1.0000
  C   C216      1.0  0.11569  0.07054  0.00105  1.0000
  H   H83       1.0  0.11180  0.03472  0.10487  1.0000
  O  Te27      1.0  0.04612  0.05838  0.79533  1.0000
  O  Te28      1.0  0.07263  0.10271  0.73720  1.0000
  H   H84       1.0  0.13494  0.07335  0.05427  1.0000
  Mg  Mg14      1.0  0.03852  0.08880  0.67176  1.0000
  C   C217      1.0  0.85570  0.81612  0.79750  1.0000
  C   C218      1.0  0.83269  0.81601  0.88395  1.0000
  C  Sn29      1.0  0.82403  0.83713  0.95886  1.0000
  C  Sn30      1.0  0.83872  0.85872  0.94675  1.0000
  C   C219      1.0  0.86170  0.85864  0.85989  1.0000
  C   C220      1.0  0.87019  0.83741  0.78545  1.0000
  H   H85       1.0  0.86226  0.79970  0.73982  1.0000
  O  Te29      1.0  0.79586  0.83757  0.04480  1.0000
  O  Te30      1.0  0.82535  0.88095  0.02040  1.0000
  H   H86       1.0  0.88799  0.83751  0.71844  1.0000
  Mg  Mg15      1.0  0.79270  0.87126  0.12415  1.0000
  C   C221      1.0  0.67746  0.65349  0.03503  1.0000
  C   C222      1.0  0.67618  0.67752  0.08714  1.0000
  C  Sn31      1.0  0.65555  0.68532  0.18105  1.0000
  C  Sn32      1.0  0.63586  0.66872  0.22343  1.0000
  C   C223      1.0  0.63732  0.64471  0.17079  1.0000
  C   C224      1.0  0.65805  0.63709  0.07682  1.0000
  H   H87       1.0  0.69865  0.64672  0.96240  1.0000
  O  Te31      1.0  0.65457  0.70940  0.23205  1.0000
  O  Te32      1.0  0.61503  0.67603  0.31722  1.0000
  H   H88       1.0  0.65904  0.61848  0.03658  1.0000
  Mg  Mg16      1.0  0.62229  0.71071  0.35762  1.0000
  C   C225      1.0  0.42474  0.58222  0.70559  1.0000
  C   C226      1.0  0.40200  0.58664  0.61148  1.0000
  C  Sn33      1.0  0.39086  0.56835  0.51352  1.0000
  C  Sn34      1.0  0.40273  0.54524  0.50999  1.0000
  C   C227      1.0  0.42546  0.54100  0.60468  1.0000
  C   C228      1.0  0.43645  0.55942  0.70223  1.0000
  H   H89       1.0  0.43324  0.59647  0.78114  1.0000
  O  Te33      1.0  0.36814  0.57308  0.42022  1.0000
  O  Te34      1.0  0.39199  0.52664  0.41321  1.0000
  H   H90       1.0  0.45405  0.55599  0.77516  1.0000
  Mg  Mg17      1.0  0.36089  0.54190  0.30768  1.0000
  C   C229      1.0  0.92512  0.08343  0.34921  1.0000
  C   C230      1.0  0.90105  0.08678  0.41967  1.0000
  C  Sn35      1.0  0.89003  0.06829  0.51317  1.0000
  C  Sn36      1.0  0.90341  0.04606  0.53639  1.0000
  C   C231      1.0  0.92749  0.04290  0.46549  1.0000
  C   C232      1.0  0.93833  0.06151  0.37211  1.0000
  H   H91       1.0  0.93352  0.09783  0.27704  1.0000
  O  Te35      1.0  0.86596  0.07194  0.58263  1.0000
  O  Te36      1.0  0.89284  0.02729  0.62933  1.0000
  H   H92       1.0  0.95698  0.05892  0.31767  1.0000
  Mg  Mg18      1.0  0.85954  0.04093  0.69907  1.0000
  C   C233      1.0  0.16425  0.85595  0.48884  1.0000
  C   C234      1.0  0.14249  0.85731  0.38130  1.0000
  C  Sn37      1.0  0.13499  0.83734  0.28541  1.0000
  C  Sn38      1.0  0.14957  0.81564  0.29770  1.0000
  C   C235      1.0  0.17129  0.81445  0.40575  1.0000
  C   C236      1.0  0.17863  0.83454  0.50109  1.0000
  H   H93       1.0  0.16992  0.87148  0.56269  1.0000
  O  Te37      1.0  0.11321  0.83901  0.17855  1.0000
  O  Te38      1.0  0.14250  0.79541  0.20334  1.0000
  H   H94       1.0  0.19547  0.83348  0.58442  1.0000
  Mg  Mg19      1.0  0.11132  0.80657  0.07553  1.0000
  C   C237      1.0  0.32275  0.65327  0.52352  1.0000
  C   C238      1.0  0.32223  0.67541  0.60631  1.0000
  C  Sn39      1.0  0.34245  0.68186  0.71694  1.0000
  C  Sn40      1.0  0.36356  0.66580  0.74492  1.0000
  C   C239      1.0  0.36391  0.64369  0.66139  1.0000
  C   C240      1.0  0.34357  0.63742  0.55099  1.0000
  H   H95       1.0  0.30703  0.64842  0.43802  1.0000
  O  Te39      1.0  0.34161  0.70405  0.79868  1.0000
  O  Te40      1.0  0.38402  0.67179  0.85479  1.0000
  H   H96       1.0  0.34399  0.62028  0.48682  1.0000
  Mg  Mg20      1.0  0.37407  0.70407  0.93663  1.0000
  C   C241      1.0  0.60042  0.45368  0.49492  1.0000
  C   C242      1.0  0.57577  0.45618  0.55883  1.0000
  C  Sn41      1.0  0.56492  0.43733  0.64982  1.0000
  C  Sn42      1.0  0.57907  0.41560  0.67716  1.0000
  C   C243      1.0  0.60373  0.41329  0.61280  1.0000
  C   C244      1.0  0.61440  0.43227  0.52188  1.0000
  H   H97       1.0  0.60868  0.46837  0.42465  1.0000
  O  Te41      1.0  0.54027  0.44012  0.71274  1.0000
  O  Te42      1.0  0.56870  0.39648  0.76771  1.0000
  H   H98       1.0  0.63349  0.43034  0.47250  1.0000
  Mg  Mg21      1.0  0.53439  0.40893  0.82820  1.0000
  C   C245      1.0  0.07070  0.91584  0.32572  1.0000
  C   C246      1.0  0.09566  0.91264  0.39421  1.0000
  C  Sn43      1.0  0.10765  0.93115  0.48597  1.0000
  C  Sn44      1.0  0.09434  0.95324  0.50941  1.0000
  C   C247      1.0  0.06936  0.95625  0.44048  1.0000
  C   C248      1.0  0.05756  0.93762  0.34884  1.0000
  H   H99       1.0  0.06156  0.90142  0.25489  1.0000
  O  Te43      1.0  0.13260  0.92766  0.55349  1.0000
  O  Te44      1.0  0.10586  0.97203  0.60063  1.0000
  H   H100      1.0  0.03822  0.94009  0.29591  1.0000
  Mg  Mg22      1.0  0.14014  0.95862  0.66804  1.0000
  C   C249      1.0  0.85423  0.18430  0.31896  1.0000
  C   C250      1.0  0.83017  0.18369  0.39312  1.0000
  C  Sn45      1.0  0.82191  0.16270  0.47318  1.0000
  C  Sn46      1.0  0.83807  0.14196  0.47895  1.0000
  C   C251      1.0  0.86211  0.14276  0.40448  1.0000
  C   C252      1.0  0.87019  0.16386  0.32464  1.0000
  H   H101      1.0  0.86048  0.20063  0.25727  1.0000
  O  Te45      1.0  0.79781  0.16240  0.54658  1.0000
  O  Te46      1.0  0.83029  0.12075  0.55820  1.0000
  H   H102      1.0  0.88882  0.16434  0.26733  1.0000
  Mg  Mg23      1.0  0.79577  0.12923  0.63989  1.0000
  C   C253      1.0  0.67731  0.34887  0.53160  1.0000
  C   C254      1.0  0.67786  0.32581  0.60372  1.0000
  C  Sn47      1.0  0.65733  0.31784  0.69858  1.0000
  C  Sn48      1.0  0.63586  0.33329  0.72140  1.0000
  C   C255      1.0  0.63547  0.35633  0.64864  1.0000
  C   C256      1.0  0.65613  0.36413  0.55400  1.0000
  H   H103      1.0  0.69328  0.35490  0.45830  1.0000
  O  Te47      1.0  0.65820  0.29474  0.76980  1.0000
  O  Te48      1.0  0.61507  0.32579  0.81557  1.0000
  H   H104      1.0  0.65569  0.38198  0.49809  1.0000
  Mg  Mg24      1.0  0.62521  0.29272  0.88756  1.0000
  C   C257      1.0  0.42675  0.41576  0.70136  1.0000
  C   C258      1.0  0.40204  0.41241  0.62950  1.0000
  C  Sn49      1.0  0.39018  0.43092  0.53565  1.0000
  C  Sn50      1.0  0.40336  0.45317  0.51351  1.0000
  C   C259      1.0  0.42809  0.45633  0.58581  1.0000
  C   C260      1.0  0.43977  0.43770  0.67953  1.0000
  H   H105      1.0  0.43579  0.40134  0.77380  1.0000
  O  Te49      1.0  0.36548  0.42727  0.46478  1.0000
  O  Te50      1.0  0.39197  0.47196  0.42026  1.0000
  H   H106      1.0  0.45891  0.44029  0.73506  1.0000
  Mg  Mg25      1.0  0.35803  0.45831  0.34844  1.0000
  C   C261      1.0  0.88908  0.94083  0.53372  1.0000
  C   C262      1.0  0.89171  0.91960  0.44232  1.0000
  C  Sn51      1.0  0.91366  0.91589  0.34898  1.0000
  C  Sn52      1.0  0.93332  0.93380  0.34740  1.0000
  C   C263      1.0  0.93051  0.95498  0.43936  1.0000
  C   C264      1.0  0.90846  0.95851  0.53228  1.0000
  H   H107      1.0  0.87203  0.94356  0.60569  1.0000
  O  Te51      1.0  0.91597  0.89458  0.25833  1.0000
  O  Te52      1.0  0.95546  0.93056  0.25524  1.0000
  H   H108      1.0  0.90644  0.97494  0.60312  1.0000
  Mg  Mg26      1.0  0.94974  0.89849  0.15192  1.0000
  C   C265      1.0  0.14367  0.18242  0.29605  1.0000
  C   C266      1.0  0.16578  0.18329  0.40066  1.0000
  C  Sn53      1.0  0.17395  0.16270  0.48935  1.0000
  C  Sn54      1.0  0.15968  0.14087  0.47269  1.0000
  C   C267      1.0  0.13760  0.14018  0.36762  1.0000
  C   C268      1.0  0.12959  0.16089  0.27950  1.0000
  H   H109      1.0  0.13748  0.19843  0.22779  1.0000
  O  Te53      1.0  0.19607  0.16389  0.59338  1.0000
  O  Te54      1.0  0.16741  0.12002  0.55983  1.0000
  H   H110      1.0  0.11248  0.16020  0.19842  1.0000
  Mg  Mg27      1.0  0.19886  0.13068  0.68626  1.0000
  C   C269      1.0  0.35427  0.31565  0.73738  1.0000
  C   C270      1.0  0.33092  0.31562  0.64464  1.0000
  C  Sn55      1.0  0.32367  0.33578  0.54837  1.0000
  C  Sn56      1.0  0.34013  0.35632  0.54511  1.0000
  C   C271      1.0  0.36345  0.35615  0.63825  1.0000
  C   C272      1.0  0.37052  0.33589  0.73419  1.0000
  H   H111      1.0  0.35974  0.29996  0.81155  1.0000
  O  Te55      1.0  0.30028  0.33546  0.45650  1.0000
  O  Te56      1.0  0.33335  0.37670  0.44992  1.0000
  H   H112      1.0  0.38860  0.33591  0.80590  1.0000
  Mg  Mg28      1.0  0.29951  0.36759  0.34598  1.0000
  C   C273      1.0  0.60830  0.55838  0.49186  1.0000
  C   C274      1.0  0.60434  0.58119  0.56055  1.0000
  C  Sn57      1.0  0.58254  0.58557  0.65394  1.0000
  C  Sn58      1.0  0.56440  0.56673  0.67885  1.0000
  C   C275      1.0  0.56855  0.54397  0.60970  1.0000
  C   C276      1.0  0.59043  0.53978  0.51642  1.0000
  H   H113      1.0  0.62524  0.55513  0.41976  1.0000
  O  Te57      1.0  0.57888  0.60847  0.72164  1.0000
  O  Te58      1.0  0.54245  0.57061  0.77171  1.0000
  H   H114      1.0  0.59350  0.52211  0.46334  1.0000
  Mg  Mg29      1.0  0.54597  0.60490  0.83871  1.0000
  C   C277      1.0  0.10015  0.04645  0.52287  1.0000
  C   C278      1.0  0.07528  0.04344  0.45280  1.0000
  C  Sn59      1.0  0.06368  0.06200  0.35809  1.0000
  C  Sn60      1.0  0.07730  0.08395  0.33325  1.0000
  C   C279      1.0  0.10218  0.08678  0.40378  1.0000
  C   C280      1.0  0.11360  0.06810  0.49838  1.0000
  H   H115      1.0  0.10900  0.03200  0.59599  1.0000
  O  Te59      1.0  0.03881  0.05869  0.28902  1.0000
  O  Te60      1.0  0.06617  0.10278  0.23908  1.0000
  H   H116      1.0  0.13287  0.07043  0.55253  1.0000
  Mg  Mg30      1.0  0.03184  0.08965  0.17048  1.0000
  C   C281      1.0  0.83235  0.85681  0.47789  1.0000
  C   C282      1.0  0.85643  0.85618  0.40411  1.0000
  C  Sn61      1.0  0.86420  0.83553  0.31970  1.0000
  C  Sn62      1.0  0.84751  0.81518  0.30912  1.0000
  C   C283      1.0  0.82345  0.81600  0.38325  1.0000
  C   C284      1.0  0.81587  0.83675  0.46746  1.0000
  H   H117      1.0  0.82647  0.87287  0.54297  1.0000
  O  Te61      1.0  0.88833  0.83520  0.24676  1.0000
  O  Te62      1.0  0.85479  0.79432  0.22546  1.0000
  H   H118      1.0  0.79722  0.83724  0.52447  1.0000
  Mg  Mg31      1.0  0.88957  0.80260  0.14635  1.0000
  C   C285      1.0  0.63625  0.67285  0.73172  1.0000
  C   C286      1.0  0.63590  0.64968  0.66313  1.0000
  C  Sn63      1.0  0.65650  0.64177  0.56934  1.0000
  C  Sn64      1.0  0.67782  0.65738  0.54401  1.0000
  C   C287      1.0  0.67798  0.68053  0.61325  1.0000
  C   C288      1.0  0.65727  0.68826  0.70685  1.0000
  H   H119      1.0  0.62022  0.67884  0.80421  1.0000
  O  Te63      1.0  0.65584  0.61856  0.50165  1.0000
  O  Te64      1.0  0.69866  0.64993  0.45085  1.0000
  H   H120      1.0  0.65755  0.70620  0.76003  1.0000
  Mg  Mg32      1.0  0.68883  0.61667  0.38398  1.0000
