data_image0
_chemical_formula_structural       C27H18N2C21H14N2C25H16N2C9H6N2C11H8N2C15H10N2C21H14N2C15H10N2C17H12N2C27H18N2C19H12N2C9H6N2SnCSn2CSnTe4Mg2SnCSn2CSnTe4Mg2SnCSn2CSnTe4Mg2SnCSn2CSnTe4Mg2SnCSn2CSnTe4Mg2SnCSn2CSnTe4Mg2SnCSn2CSnTe4Mg2SnCSn2CSnTe4Mg2SnCSn2CSnTe4Mg2SnCSn2CSnTe4Mg2SnCSn2CSnTe4Mg2SnCSn2CSnTe4Mg2SnCSn2CSnTe4Mg2SnCSn2CSnTe4Mg2SnCSn2CSnTe4Mg2SnCSn2CSnTe4Mg2SnCSn2CSnTe4Mg2SnCSn2CSnTe4Mg2SnCSn2CSnTe4Mg2SnCSn2CSnTe4Mg2SnCSn2CSnTe4Mg2SnCSn2CSnTe4Mg2SnCSn2CSnTe4Mg2SnCSn2CSnTe4Mg2SnCSn2CSnTe4Mg2SnCSn2CSnTe4Mg2SnCSn2CSnTe4Mg2SnCSn2CSnTe4Mg2SnCSn2CSnTe4Mg2SnCSn2CSnTe4Mg2
_chemical_formula_sum              "C276 H144 N24 Sn120 Te120 Mg60"
_cell_length_a       55.989
_cell_length_b       56.0161
_cell_length_c       8.7673
_cell_angle_alpha    86.9538
_cell_angle_beta     93.449
_cell_angle_gamma    120.145

_symmetry_space_group_name_H-M    'P1'
_space_group_IT_number       1

loop_
  _space_group_symop_operation_xyz
  'x, y, z'

loop_
  _atom_site_type_symbol
  _atom_site_label
  _atom_site_symmetry_multiplicity
  _atom_site_fract_x
  _atom_site_fract_y
  _atom_site_fract_z
  _atom_site_occupancy
  C   C1        1.0  0.48800  0.48772  0.25678  1.0000
  C   C2        1.0  0.46152  0.48765  0.26530  1.0000
  C   C3        1.0  0.43757  0.46847  0.18346  1.0000
  C   C4        1.0  0.41270  0.46835  0.18936  1.0000
  C   C5        1.0  0.41104  0.48803  0.27473  1.0000
  C   C6        1.0  0.43483  0.50720  0.35752  1.0000
  C   C7        1.0  0.45906  0.50628  0.35523  1.0000
  C   C8        1.0  0.48404  0.45938  0.25332  1.0000
  C   C9        1.0  0.46331  0.43758  0.33985  1.0000
  C   C10       1.0  0.45910  0.41091  0.34085  1.0000
  C   C11       1.0  0.47637  0.40506  0.25940  1.0000
  C   C12       1.0  0.49674  0.42639  0.16989  1.0000
  C   C13       1.0  0.49987  0.45262  0.16551  1.0000
  C   C14       1.0  0.36341  0.46876  0.29073  1.0000
  C   C15       1.0  0.33808  0.47021  0.27497  1.0000
  C   C16       1.0  0.31279  0.44760  0.31980  1.0000
  C   C17       1.0  0.28877  0.44932  0.31220  1.0000
  C   C18       1.0  0.28910  0.47354  0.25697  1.0000
  C   C19       1.0  0.31433  0.49568  0.20582  1.0000
  C   C20       1.0  0.33835  0.49419  0.21555  1.0000
  C   C21       1.0  0.26412  0.47605  0.25480  1.0000
  C   C22       1.0  0.49275  0.37427  0.29052  1.0000
  C   C23       1.0  0.48063  0.26594  0.27373  1.0000
  C   C24       1.0  0.50332  0.26231  0.25338  1.0000
  C   C25       1.0  0.45452  0.24205  0.28793  1.0000
  C   C26       1.0  0.50003  0.23607  0.24675  1.0000
  C   C27       1.0  0.23743  0.45292  0.23933  1.0000
  H   H1        1.0  0.47721  0.52080  0.42036  1.0000
  H   H2        1.0  0.43870  0.45387  0.11156  1.0000
  H   H3        1.0  0.39480  0.45409  0.12028  1.0000
  H   H4        1.0  0.43349  0.52197  0.42695  1.0000
  H   H5        1.0  0.45046  0.44179  0.40912  1.0000
  H   H6        1.0  0.44340  0.39462  0.41094  1.0000
  H   H7        1.0  0.50929  0.42191  0.09939  1.0000
  H   H8        1.0  0.51538  0.46868  0.09478  1.0000
  H   H9        1.0  0.36119  0.44847  0.32198  1.0000
  H   H10       1.0  0.31224  0.42885  0.36483  1.0000
  H   H11       1.0  0.26970  0.43206  0.35410  1.0000
  H   H12       1.0  0.31476  0.51405  0.15535  1.0000
  H   H13       1.0  0.35777  0.51129  0.17639  1.0000
  H   H14       1.0  0.51346  0.39144  0.32145  1.0000
  H   H15       1.0  0.52373  0.28036  0.24047  1.0000
  H   H16       1.0  0.43669  0.24424  0.30676  1.0000
  H   H17       1.0  0.28648  0.52016  0.28578  1.0000
  H   H18       1.0  0.23504  0.43266  0.22490  1.0000
  N   N1        1.0  0.38737  0.49041  0.27284  1.0000
  N   N2        1.0  0.47201  0.37817  0.26401  1.0000
  C   C28       1.0  0.51211  0.99952  0.26282  1.0000
  C   C29       1.0  0.51171  0.97265  0.27074  1.0000
  C   C30       1.0  0.53138  0.96965  0.19343  1.0000
  C   C31       1.0  0.53091  0.94455  0.19173  1.0000
  C   C32       1.0  0.51014  0.92094  0.26599  1.0000
  C   C33       1.0  0.49072  0.92377  0.34668  1.0000
  C   C34       1.0  0.49209  0.94913  0.35164  1.0000
  C   C35       1.0  0.54047  0.02408  0.26025  1.0000
  C   C36       1.0  0.56258  0.02393  0.34582  1.0000
  C   C37       1.0  0.58931  0.04644  0.34552  1.0000
  C   C38       1.0  0.59501  0.07067  0.26120  1.0000
  C   C39       1.0  0.57328  0.07117  0.17457  1.0000
  C   C40       1.0  0.54690  0.04823  0.17351  1.0000
  C   C41       1.0  0.52810  0.89124  0.27908  1.0000
  C   C42       1.0  0.52013  0.78460  0.25065  1.0000
  C   C43       1.0  0.62673  0.11710  0.29433  1.0000
  C   C44       1.0  0.73357  0.21521  0.24332  1.0000
  C   C45       1.0  0.73668  0.24171  0.24868  1.0000
  C   C46       1.0  0.75764  0.21345  0.23399  1.0000
  C   C47       1.0  0.76269  0.26534  0.24666  1.0000
  C   C48       1.0  0.54366  0.78160  0.26905  1.0000
  H   H19       1.0  0.47708  0.95081  0.41567  1.0000
  H   H20       1.0  0.54705  0.98730  0.13059  1.0000
  H   H21       1.0  0.54562  0.94273  0.12467  1.0000
  H   H22       1.0  0.47515  0.90591  0.40891  1.0000
  H   H23       1.0  0.55859  0.00561  0.41389  1.0000
  H   H24       1.0  0.60583  0.04595  0.41487  1.0000
  H   H25       1.0  0.57759  0.08937  0.10415  1.0000
  H   H26       1.0  0.53047  0.04927  0.10785  1.0000
  H   H27       1.0  0.54837  0.90827  0.31754  1.0000
  H   H28       1.0  0.61058  0.11999  0.34158  1.0000
  H   H29       1.0  0.71839  0.24369  0.25406  1.0000
  H   H30       1.0  0.75579  0.19320  0.22990  1.0000
  H   H31       1.0  0.47560  0.76171  0.22040  1.0000
  H   H32       1.0  0.56398  0.79987  0.28202  1.0000
  N   N3        1.0  0.50700  0.89465  0.25584  1.0000
  N   N4        1.0  0.62200  0.09307  0.25776  1.0000
  C   C49       1.0  0.00186  0.51256  0.25120  1.0000
  C   C50       1.0  0.02835  0.53940  0.25817  1.0000
  C   C51       1.0  0.03143  0.56268  0.17218  1.0000
  C   C52       1.0  0.05623  0.58776  0.17405  1.0000
  C   C53       1.0  0.07932  0.59041  0.26114  1.0000
  C   C54       1.0  0.07655  0.56736  0.34803  1.0000
  C   C55       1.0  0.05151  0.54285  0.34783  1.0000
  C   C56       1.0  0.97683  0.51567  0.24297  1.0000
  C   C57       1.0  0.97719  0.53746  0.31923  1.0000
  C   C58       1.0  0.95465  0.54158  0.31428  1.0000
  C   C59       1.0  0.92976  0.52305  0.23777  1.0000
  C   C60       1.0  0.92904  0.50137  0.15953  1.0000
  C   C61       1.0  0.95221  0.49832  0.16010  1.0000
  C   C62       1.0  0.10781  0.63803  0.28155  1.0000
  C   C63       1.0  0.13445  0.66346  0.27017  1.0000
  C   C64       1.0  0.13892  0.68777  0.33627  1.0000
  C   C65       1.0  0.16475  0.71165  0.33268  1.0000
  C   C66       1.0  0.18679  0.71222  0.26003  1.0000
  C   C67       1.0  0.18191  0.68790  0.19070  1.0000
  C   C68       1.0  0.15635  0.66393  0.19644  1.0000
  C   C69       1.0  0.88319  0.50782  0.26996  1.0000
  C   C70       1.0  0.78707  0.52087  0.24546  1.0000
  C   C71       1.0  0.76042  0.49766  0.23093  1.0000
  C   C72       1.0  0.78923  0.54688  0.25581  1.0000
  C   C73       1.0  0.73698  0.50030  0.22752  1.0000
  H   H33       1.0  0.04989  0.52521  0.41292  1.0000
  H   H34       1.0  0.01409  0.56091  0.10097  1.0000
  H   H35       1.0  0.05832  0.60501  0.10136  1.0000
  H   H36       1.0  0.09419  0.56927  0.41716  1.0000
  H   H37       1.0  0.99576  0.55151  0.38410  1.0000
  H   H38       1.0  0.95557  0.55847  0.37498  1.0000
  H   H39       1.0  0.91049  0.48771  0.09265  1.0000
  H   H40       1.0  0.95103  0.48164  0.09709  1.0000
  H   H41       1.0  0.09020  0.63991  0.31504  1.0000
  H   H42       1.0  0.12233  0.68754  0.39627  1.0000
  H   H43       1.0  0.16823  0.72977  0.39194  1.0000
  H   H44       1.0  0.19832  0.68815  0.12895  1.0000
  H   H45       1.0  0.15263  0.64522  0.14293  1.0000
  H   H46       1.0  0.87986  0.48754  0.31231  1.0000
  H   H47       1.0  0.75822  0.47738  0.22063  1.0000
  H   H48       1.0  0.80962  0.56512  0.26863  1.0000
  N   N5        1.0  0.10526  0.61431  0.25797  1.0000
  N   N6        1.0  0.90739  0.52767  0.23505  1.0000
  C   C74       1.0  0.51365  0.51180  0.25532  1.0000
  C   C75       1.0  0.63864  0.53022  0.27944  1.0000
  C   C76       1.0  0.73906  0.52622  0.24041  1.0000
  C   C77       1.0  0.50759  0.62444  0.28242  1.0000
  C   C78       1.0  0.51565  0.73149  0.25467  1.0000
  C   C79       1.0  0.49212  0.73444  0.23596  1.0000
  C   C80       1.0  0.54152  0.75574  0.27053  1.0000
  C   C81       1.0  0.49430  0.76032  0.23341  1.0000
  C   C82       1.0  0.76573  0.54948  0.25416  1.0000
  H   H49       1.0  0.64051  0.54873  0.32945  1.0000
  H   H50       1.0  0.48748  0.60691  0.31534  1.0000
  H   H51       1.0  0.47188  0.71610  0.22155  1.0000
  H   H52       1.0  0.56010  0.75416  0.28700  1.0000
  H   H53       1.0  0.71662  0.48195  0.21793  1.0000
  H   H54       1.0  0.76799  0.56984  0.26222  1.0000
  N   N7        1.0  0.61478  0.50945  0.24412  1.0000
  N   N8        1.0  0.52819  0.62106  0.25722  1.0000
  C   C83       1.0  0.48824  0.00142  0.25624  1.0000
  C   C84       1.0  0.46755  0.10611  0.27280  1.0000
  C   C85       1.0  0.47391  0.21214  0.26021  1.0000
  C   C86       1.0  0.37580  0.88309  0.26517  1.0000
  C   C87       1.0  0.34855  0.85828  0.26018  1.0000
  C   C88       1.0  0.34497  0.83325  0.32510  1.0000
  C   C89       1.0  0.31889  0.80969  0.32674  1.0000
  C   C90       1.0  0.29564  0.81010  0.25906  1.0000
  C   C91       1.0  0.29958  0.83517  0.19100  1.0000
  C   C92       1.0  0.32541  0.85888  0.19274  1.0000
  C   C93       1.0  0.45122  0.21579  0.28129  1.0000
  H   H55       1.0  0.44853  0.08819  0.31491  1.0000
  H   H56       1.0  0.39366  0.88010  0.28974  1.0000
  H   H57       1.0  0.36273  0.83270  0.37908  1.0000
  H   H58       1.0  0.31628  0.79093  0.38482  1.0000
  H   H59       1.0  0.28214  0.83577  0.13328  1.0000
  H   H60       1.0  0.32841  0.87819  0.14024  1.0000
  H   H61       1.0  0.51809  0.23403  0.23280  1.0000
  H   H62       1.0  0.43071  0.19777  0.29104  1.0000
  N   N9        1.0  0.48871  0.10411  0.24255  1.0000
  N   N10       1.0  0.37889  0.90749  0.24627  1.0000
  C   C94       1.0  0.00093  0.48725  0.25369  1.0000
  C   C95       1.0  0.97455  0.46038  0.25839  1.0000
  C   C96       1.0  0.97036  0.43826  0.16969  1.0000
  C   C97       1.0  0.94535  0.41338  0.16719  1.0000
  C   C98       1.0  0.92315  0.41007  0.25046  1.0000
  C   C99       1.0  0.92728  0.43172  0.34284  1.0000
  C   C100      1.0  0.95273  0.45579  0.34942  1.0000
  C   C101      1.0  0.89342  0.36262  0.27520  1.0000
  C   C102      1.0  0.78677  0.26351  0.24112  1.0000
  C   C103      1.0  0.11878  0.49105  0.28416  1.0000
  C   C104      1.0  0.21609  0.48134  0.25715  1.0000
  C   C105      1.0  0.24278  0.50449  0.27198  1.0000
  C   C106      1.0  0.21401  0.45550  0.24054  1.0000
  C   C107      1.0  0.26619  0.50191  0.27104  1.0000
  C   C108      1.0  0.78370  0.23707  0.23442  1.0000
  H   H63       1.0  0.95605  0.47204  0.42414  1.0000
  H   H64       1.0  0.98678  0.44084  0.09862  1.0000
  H   H65       1.0  0.94227  0.39696  0.09352  1.0000
  H   H66       1.0  0.91066  0.42890  0.41311  1.0000
  H   H67       1.0  0.91059  0.36017  0.32523  1.0000
  H   H68       1.0  0.12198  0.51072  0.32535  1.0000
  H   H69       1.0  0.24514  0.52481  0.28302  1.0000
  H   H70       1.0  0.19368  0.43715  0.23075  1.0000
  H   H71       1.0  0.76463  0.28560  0.25288  1.0000
  H   H72       1.0  0.80202  0.23514  0.22857  1.0000
  N   N11       1.0  0.89679  0.38665  0.23813  1.0000
  N   N12       1.0  0.09432  0.47102  0.25017  1.0000
  C   C109      1.0  0.48700  0.48784  0.75480  1.0000
  C   C110      1.0  0.48374  0.45977  0.75121  1.0000
  C   C111      1.0  0.46237  0.43745  0.83193  1.0000
  C   C112      1.0  0.45806  0.41078  0.82945  1.0000
  C   C113      1.0  0.47599  0.40539  0.75122  1.0000
  C   C114      1.0  0.49739  0.42733  0.67013  1.0000
  C   C115      1.0  0.50058  0.45360  0.66819  1.0000
  C   C116      1.0  0.36187  0.46818  0.79850  1.0000
  C   C117      1.0  0.33627  0.46926  0.78187  1.0000
  C   C118      1.0  0.31363  0.45144  0.87067  1.0000
  C   C119      1.0  0.28979  0.45348  0.86369  1.0000
  C   C120      1.0  0.28770  0.47316  0.76594  1.0000
  C   C121      1.0  0.31009  0.49021  0.67244  1.0000
  C   C122      1.0  0.33399  0.48844  0.68049  1.0000
  C   C123      1.0  0.49109  0.37358  0.78633  1.0000
  C   C124      1.0  0.48796  0.34620  0.77494  1.0000
  C   C125      1.0  0.50691  0.33996  0.85326  1.0000
  C   C126      1.0  0.50407  0.31390  0.84422  1.0000
  C   C127      1.0  0.48253  0.29341  0.75452  1.0000
  C   C128      1.0  0.46373  0.29989  0.67541  1.0000
  C   C129      1.0  0.46629  0.32574  0.68571  1.0000
  H   H73       1.0  0.44893  0.44126  0.89854  1.0000
  H   H74       1.0  0.44159  0.39403  0.89345  1.0000
  H   H75       1.0  0.51057  0.42322  0.60273  1.0000
  H   H76       1.0  0.51687  0.47004  0.60297  1.0000
  H   H77       1.0  0.36069  0.44983  0.85837  1.0000
  H   H78       1.0  0.31519  0.43658  0.94974  1.0000
  H   H79       1.0  0.27303  0.44047  0.93886  1.0000
  H   H80       1.0  0.30831  0.50459  0.59061  1.0000
  H   H81       1.0  0.35121  0.50157  0.60815  1.0000
  H   H82       1.0  0.51129  0.38998  0.83009  1.0000
  H   H83       1.0  0.52354  0.35551  0.92428  1.0000
  H   H84       1.0  0.51825  0.30899  0.90975  1.0000
  H   H85       1.0  0.44752  0.28468  0.60125  1.0000
  H   H86       1.0  0.45206  0.33087  0.62257  1.0000
  N   N13       1.0  0.38486  0.48820  0.75084  1.0000
  N   N14       1.0  0.47119  0.37836  0.74962  1.0000
  C   C130      1.0  0.51272  0.99962  0.76467  1.0000
  C   C131      1.0  0.51297  0.97312  0.76848  1.0000
  C   C132      1.0  0.53156  0.97074  0.67794  1.0000
  C   C133      1.0  0.53146  0.94596  0.66787  1.0000
  C   C134      1.0  0.51212  0.92228  0.74767  1.0000
  C   C135      1.0  0.49390  0.92442  0.84198  1.0000
  C   C136      1.0  0.49500  0.94954  0.85441  1.0000
  C   C137      1.0  0.54100  0.02423  0.76375  1.0000
  C   C138      1.0  0.56282  0.02425  0.85359  1.0000
  C   C139      1.0  0.58946  0.04692  0.85533  1.0000
  C   C140      1.0  0.59530  0.07112  0.76992  1.0000
  C   C141      1.0  0.57399  0.07102  0.67541  1.0000
  C   C142      1.0  0.54773  0.04795  0.67232  1.0000
  C   C143      1.0  0.52877  0.89180  0.78151  1.0000
  C   C144      1.0  0.62545  0.11835  0.77989  1.0000
  H   H87       1.0  0.48084  0.95070  0.92820  1.0000
  H   H88       1.0  0.54589  0.98864  0.61103  1.0000
  H   H89       1.0  0.54526  0.94441  0.59193  1.0000
  H   H90       1.0  0.47940  0.90630  0.90709  1.0000
  H   H91       1.0  0.55863  0.00603  0.92326  1.0000
  H   H92       1.0  0.60588  0.04670  0.92712  1.0000
  H   H93       1.0  0.57846  0.08872  0.60003  1.0000
  H   H94       1.0  0.53161  0.04834  0.59996  1.0000
  H   H95       1.0  0.54671  0.90737  0.84796  1.0000
  H   H96       1.0  0.60790  0.12165  0.79334  1.0000
  N   N15       1.0  0.50945  0.89636  0.72872  1.0000
  N   N16       1.0  0.62209  0.09379  0.77559  1.0000
  C   C145      1.0  0.00057  0.51342  0.75043  1.0000
  C   C146      1.0  0.02703  0.54018  0.75816  1.0000
  C   C147      1.0  0.03033  0.56338  0.67058  1.0000
  C   C148      1.0  0.05532  0.58827  0.67210  1.0000
  C   C149      1.0  0.07821  0.59073  0.76065  1.0000
  C   C150      1.0  0.07505  0.56786  0.85093  1.0000
  C   C151      1.0  0.04981  0.54359  0.85122  1.0000
  C   C152      1.0  0.97575  0.51679  0.74342  1.0000
  C   C153      1.0  0.97580  0.53713  0.83225  1.0000
  C   C154      1.0  0.95320  0.54105  0.83372  1.0000
  C   C155      1.0  0.92879  0.52388  0.74886  1.0000
  C   C156      1.0  0.92867  0.50410  0.65563  1.0000
  C   C157      1.0  0.95179  0.50107  0.65209  1.0000
  C   C158      1.0  0.10716  0.63837  0.77450  1.0000
  C   C159      1.0  0.21394  0.73663  0.73683  1.0000
  C   C160      1.0  0.88187  0.50683  0.77674  1.0000
  C   C161      1.0  0.21710  0.76319  0.72364  1.0000
  H   H97       1.0  0.04755  0.52610  0.92051  1.0000
  H   H98       1.0  0.01307  0.56173  0.59899  1.0000
  H   H99       1.0  0.05778  0.60564  0.59925  1.0000
  H   H100      1.0  0.09241  0.56980  0.92295  1.0000
  H   H101      1.0  0.99407  0.54994  0.90287  1.0000
  H   H102      1.0  0.95366  0.55649  0.90584  1.0000
  H   H103      1.0  0.91065  0.49188  0.58154  1.0000
  H   H104      1.0  0.95108  0.48584  0.57809  1.0000
  H   H105      1.0  0.08978  0.64079  0.80648  1.0000
  H   H106      1.0  0.87893  0.48612  0.80397  1.0000
  H   H107      1.0  0.23611  0.71424  0.75798  1.0000
  H   H108      1.0  0.19878  0.76530  0.71283  1.0000
  N   N17       1.0  0.10429  0.61439  0.75562  1.0000
  N   N18       1.0  0.90609  0.52782  0.75411  1.0000
  C   C162      1.0  0.51230  0.51232  0.75436  1.0000
  C   C163      1.0  0.53927  0.51288  0.76063  1.0000
  C   C164      1.0  0.56124  0.53239  0.67211  1.0000
  C   C165      1.0  0.58634  0.53284  0.67100  1.0000
  C   C166      1.0  0.59044  0.51333  0.75878  1.0000
  C   C167      1.0  0.56878  0.49391  0.84933  1.0000
  C   C168      1.0  0.54427  0.49433  0.85205  1.0000
  C   C169      1.0  0.51548  0.54047  0.74857  1.0000
  C   C170      1.0  0.53808  0.56213  0.82788  1.0000
  C   C171      1.0  0.54244  0.58886  0.82505  1.0000
  C   C172      1.0  0.52378  0.59522  0.74446  1.0000
  C   C173      1.0  0.50127  0.57400  0.66350  1.0000
  C   C174      1.0  0.49748  0.54751  0.66559  1.0000
  C   C175      1.0  0.63852  0.53306  0.76181  1.0000
  C   C176      1.0  0.66355  0.53133  0.75014  1.0000
  C   C177      1.0  0.68921  0.55260  0.80565  1.0000
  C   C178      1.0  0.71278  0.55014  0.80668  1.0000
  C   C179      1.0  0.71185  0.52676  0.74787  1.0000
  C   C180      1.0  0.68623  0.50609  0.68601  1.0000
  C   C181      1.0  0.66256  0.50814  0.68846  1.0000
  C   C182      1.0  0.50834  0.62626  0.76416  1.0000
  C   C183      1.0  0.51083  0.65349  0.75030  1.0000
  C   C184      1.0  0.48983  0.65722  0.80452  1.0000
  C   C185      1.0  0.49169  0.68299  0.79442  1.0000
  C   C186      1.0  0.51455  0.70588  0.72830  1.0000
  C   C187      1.0  0.53543  0.70195  0.67266  1.0000
  C   C188      1.0  0.53372  0.67632  0.68369  1.0000
  H   H109      1.0  0.52795  0.47930  0.92278  1.0000
  H   H110      1.0  0.55829  0.54727  0.60133  1.0000
  H   H111      1.0  0.60245  0.54746  0.59637  1.0000
  H   H112      1.0  0.57191  0.47916  0.92062  1.0000
  H   H113      1.0  0.55265  0.55775  0.89263  1.0000
  H   H114      1.0  0.55980  0.60499  0.88906  1.0000
  H   H115      1.0  0.48726  0.57873  0.59469  1.0000
  H   H116      1.0  0.47967  0.53175  0.60387  1.0000
  H   H117      1.0  0.64138  0.55358  0.78242  1.0000
  H   H118      1.0  0.69040  0.57071  0.85373  1.0000
  H   H119      1.0  0.73199  0.56615  0.85838  1.0000
  H   H120      1.0  0.68509  0.48848  0.63210  1.0000
  H   H121      1.0  0.64290  0.49213  0.64078  1.0000
  H   H122      1.0  0.48806  0.60905  0.79743  1.0000
  H   H123      1.0  0.47230  0.63977  0.85861  1.0000
  H   H124      1.0  0.47579  0.68573  0.84239  1.0000
  H   H125      1.0  0.55279  0.71924  0.61687  1.0000
  H   H126      1.0  0.54975  0.67329  0.63977  1.0000
  N   N19       1.0  0.61428  0.51130  0.75432  1.0000
  N   N20       1.0  0.52866  0.62229  0.74196  1.0000
  C   C189      1.0  0.48868  0.00118  0.75740  1.0000
  C   C190      1.0  0.48873  0.02783  0.75811  1.0000
  C   C191      1.0  0.46930  0.03178  0.66718  1.0000
  C   C192      1.0  0.46895  0.05649  0.66566  1.0000
  C   C193      1.0  0.48874  0.07879  0.75273  1.0000
  C   C194      1.0  0.50835  0.07518  0.84369  1.0000
  C   C195      1.0  0.50768  0.05008  0.84809  1.0000
  C   C196      1.0  0.46033  0.97662  0.74953  1.0000
  C   C197      1.0  0.43868  0.97679  0.82348  1.0000
  C   C198      1.0  0.41180  0.95457  0.81913  1.0000
  C   C199      1.0  0.40551  0.93026  0.74547  1.0000
  C   C200      1.0  0.42679  0.92982  0.66999  1.0000
  C   C201      1.0  0.45326  0.95268  0.66977  1.0000
  C   C202      1.0  0.46916  0.10691  0.76033  1.0000
  C   C203      1.0  0.37435  0.88346  0.77701  1.0000
  C   C204      1.0  0.26731  0.78469  0.73629  1.0000
  C   C205      1.0  0.26415  0.75809  0.74729  1.0000
  C   C206      1.0  0.24319  0.78668  0.72287  1.0000
  C   C207      1.0  0.23803  0.73458  0.74704  1.0000
  H   H127      1.0  0.52271  0.04754  0.91944  1.0000
  H   H128      1.0  0.45434  0.01519  0.59518  1.0000
  H   H129      1.0  0.45422  0.05919  0.59079  1.0000
  H   H130      1.0  0.52342  0.09210  0.91368  1.0000
  H   H131      1.0  0.44324  0.99487  0.88659  1.0000
  H   H132      1.0  0.39573  0.95525  0.87923  1.0000
  H   H133      1.0  0.42195  0.91178  0.60538  1.0000
  H   H134      1.0  0.46902  0.95183  0.60855  1.0000
  H   H135      1.0  0.44905  0.08887  0.78847  1.0000
  H   H136      1.0  0.39135  0.88026  0.82254  1.0000
  H   H137      1.0  0.28242  0.75589  0.75559  1.0000
  H   H138      1.0  0.24510  0.80701  0.71524  1.0000
  N   N21       1.0  0.49079  0.10474  0.74627  1.0000
  N   N22       1.0  0.37843  0.90787  0.74190  1.0000
  C   C208      1.0  0.99943  0.48803  0.75413  1.0000
  C   C209      1.0  0.89485  0.36133  0.75622  1.0000
  C   C210      1.0  0.11921  0.49464  0.78536  1.0000
  C   C211      1.0  0.14375  0.49194  0.77644  1.0000
  C   C212      1.0  0.16955  0.51262  0.83438  1.0000
  C   C213      1.0  0.19291  0.50986  0.83161  1.0000
  C   C214      1.0  0.19143  0.48656  0.76816  1.0000
  C   C215      1.0  0.16563  0.46626  0.70650  1.0000
  C   C216      1.0  0.14225  0.46879  0.71102  1.0000
  H   H139      1.0  0.91295  0.35847  0.77119  1.0000
  H   H140      1.0  0.12285  0.51506  0.81586  1.0000
  H   H141      1.0  0.17105  0.53065  0.88541  1.0000
  H   H142      1.0  0.21240  0.52551  0.88289  1.0000
  H   H143      1.0  0.16425  0.44874  0.65029  1.0000
  H   H144      1.0  0.12251  0.45324  0.66173  1.0000
  N   N23       1.0  0.89703  0.38540  0.75479  1.0000
  N   N24       1.0  0.09452  0.47410  0.76261  1.0000
  C  Sn1       1.0  0.68276  0.14389  0.21035  1.0000
  C   C217      1.0  0.66069  0.13979  0.29614  1.0000
  C  Sn2       1.0  0.66005  0.16231  0.35255  1.0000
  C  Sn3       1.0  0.68192  0.18950  0.32251  1.0000
  C   C218      1.0  0.70396  0.19360  0.23675  1.0000
  C  Sn4       1.0  0.70462  0.17109  0.18032  1.0000
  O  Te1       1.0  0.68297  0.12107  0.15509  1.0000
  O  Te2       1.0  0.63778  0.15769  0.43807  1.0000
  O  Te3       1.0  0.68169  0.21233  0.37786  1.0000
  O  Te4       1.0  0.72688  0.17570  0.09482  1.0000
  Mg  Mg1       1.0  0.64686  0.19544  0.48855  1.0000
  Mg  Mg2       1.0  0.71782  0.13796  0.04422  1.0000
  C  Sn5       1.0  0.56534  0.52798  0.13093  1.0000
  C   C219      1.0  0.54216  0.51069  0.21583  1.0000
  C  Sn6       1.0  0.54395  0.49439  0.33716  1.0000
  C  Sn7       1.0  0.56944  0.49539  0.37449  1.0000
  C   C220      1.0  0.59260  0.51268  0.28963  1.0000
  C  Sn8       1.0  0.59083  0.52898  0.16825  1.0000
  O  Te5       1.0  0.56308  0.54410  0.01011  1.0000
  O  Te6       1.0  0.52050  0.47726  0.42035  1.0000
  O  Te7       1.0  0.57168  0.47926  0.49541  1.0000
  O  Te8       1.0  0.61426  0.54611  0.08511  1.0000
  Mg  Mg3       1.0  0.53396  0.45922  0.57480  1.0000
  Mg  Mg4       1.0  0.60783  0.55936  0.93070  1.0000
  C  Sn9       1.0  0.69701  0.55534  0.31704  1.0000
  C   C221      1.0  0.67161  0.53932  0.23980  1.0000
  C  Sn10      1.0  0.66595  0.51513  0.16932  1.0000
  C  Sn11      1.0  0.68609  0.50679  0.17627  1.0000
  C   C222      1.0  0.71146  0.52280  0.25349  1.0000
  C  Sn12      1.0  0.71714  0.54699  0.32398  1.0000
  O  Te9       1.0  0.70222  0.57944  0.38667  1.0000
  O  Te10      1.0  0.64042  0.49946  0.09273  1.0000
  O  Te11      1.0  0.68085  0.48267  0.10654  1.0000
  O  Te12      1.0  0.74266  0.56266  0.40055  1.0000
  Mg  Mg5       1.0  0.64302  0.46827  0.01593  1.0000
  Mg  Mg6       1.0  0.74007  0.59385  0.47746  1.0000
  C  Sn13      1.0  0.31706  0.85610  0.68828  1.0000
  C   C223      1.0  0.34029  0.86050  0.77851  1.0000
  C  Sn14      1.0  0.34209  0.83815  0.84404  1.0000
  C  Sn15      1.0  0.32023  0.81083  0.81879  1.0000
  C   C224      1.0  0.29702  0.80643  0.72859  1.0000
  C  Sn16      1.0  0.29519  0.82877  0.66302  1.0000
  O  Te13      1.0  0.31569  0.87875  0.62389  1.0000
  O  Te14      1.0  0.36552  0.84307  0.93386  1.0000
  O  Te15      1.0  0.32161  0.78817  0.88327  1.0000
  O  Te16      1.0  0.27179  0.82387  0.57323  1.0000
  Mg  Mg7       1.0  0.35776  0.80545  0.99684  1.0000
  Mg  Mg8       1.0  0.27953  0.86147  0.51014  1.0000
  C  Sn17      1.0  0.17671  0.51355  0.32097  1.0000
  C   C225      1.0  0.15081  0.49749  0.24869  1.0000
  C  Sn18      1.0  0.14363  0.47197  0.18950  1.0000
  C  Sn19      1.0  0.16273  0.46229  0.20291  1.0000
  C   C226      1.0  0.18860  0.47834  0.27517  1.0000
  C  Sn20      1.0  0.19580  0.50387  0.33438  1.0000
  O  Te17      1.0  0.18345  0.53900  0.37932  1.0000
  O  Te18      1.0  0.11763  0.45629  0.11767  1.0000
  O  Te19      1.0  0.15597  0.43682  0.14448  1.0000
  O  Te20      1.0  0.22179  0.51954  0.40619  1.0000
  Mg  Mg9       1.0  0.11804  0.42298  0.05658  1.0000
  Mg  Mg10      1.0  0.22139  0.55284  0.46740  1.0000
  C  Sn21      1.0  0.16098  0.70539  0.86281  1.0000
  C   C227      1.0  0.18418  0.70913  0.78988  1.0000
  C  Sn22      1.0  0.18160  0.69026  0.68302  1.0000
  C  Sn23      1.0  0.15526  0.66717  0.64825  1.0000
  C   C228      1.0  0.13208  0.66345  0.72113  1.0000
  C  Sn24      1.0  0.13465  0.68231  0.82803  1.0000
  O  Te21      1.0  0.16405  0.72452  0.96925  1.0000
  O  Te22      1.0  0.20510  0.69443  0.61164  1.0000
  O  Te23      1.0  0.15221  0.64804  0.54172  1.0000
  O  Te24      1.0  0.11117  0.67815  0.89938  1.0000
  Mg  Mg11      1.0  0.19035  0.66266  0.47475  1.0000
  Mg  Mg12      1.0  0.11888  0.71470  0.03622  1.0000
  C  Sn25      1.0  0.94723  0.44939  0.88583  1.0000
  C   C229      1.0  0.97117  0.45709  0.80747  1.0000
  C  Sn26      1.0  0.97051  0.44133  0.68735  1.0000
  C  Sn27      1.0  0.94541  0.41739  0.64459  1.0000
  C   C230      1.0  0.92149  0.40970  0.72291  1.0000
  C  Sn28      1.0  0.92212  0.42545  0.84307  1.0000
  O  Te25      1.0  0.94135  0.47025  0.00554  1.0000
  O  Te26      1.0  0.99471  0.44943  0.61075  1.0000
  O  Te27      1.0  0.94429  0.40132  0.52477  1.0000
  O  Te28      1.0  0.89794  0.41736  0.91963  1.0000
  Mg  Mg13      1.0  0.98271  0.42081  0.45524  1.0000
  Mg  Mg14      1.0  0.90291  0.45076  0.07509  1.0000
  C  Sn29      1.0  0.50639  0.32016  0.39209  1.0000
  C   C231      1.0  0.48464  0.29637  0.32690  1.0000
  C  Sn30      1.0  0.46577  0.29822  0.22228  1.0000
  C  Sn31      1.0  0.46871  0.32439  0.18190  1.0000
  C   C232      1.0  0.49046  0.34817  0.24705  1.0000
  C  Sn32      1.0  0.50933  0.34634  0.35171  1.0000
  O  Te29      1.0  0.52501  0.31783  0.49642  1.0000
  O  Te30      1.0  0.44419  0.27414  0.15866  1.0000
  O  Te31      1.0  0.45007  0.32671  0.07748  1.0000
  O  Te32      1.0  0.53091  0.37039  0.41529  1.0000
  Mg  Mg15      1.0  0.42410  0.28798  0.02179  1.0000
  Mg  Mg16      1.0  0.55101  0.35658  0.55210  1.0000
  C  Sn33      1.0  0.82437  0.31883  0.63970  1.0000
  C   C233      1.0  0.81734  0.29201  0.68859  1.0000
  C  Sn34      1.0  0.83576  0.28731  0.78204  1.0000
  C  Sn35      1.0  0.86174  0.30989  0.82765  1.0000
  C   C234      1.0  0.86876  0.33669  0.77880  1.0000
  C  Sn36      1.0  0.85036  0.34141  0.68532  1.0000
  O  Te33      1.0  0.80564  0.32304  0.54634  1.0000
  O  Te34      1.0  0.82827  0.26032  0.82942  1.0000
  O  Te35      1.0  0.88047  0.30566  0.92109  1.0000
  O  Te36      1.0  0.85783  0.36838  0.63797  1.0000
  Mg  Mg17      1.0  0.86081  0.26512  0.95595  1.0000
  Mg  Mg18      1.0  0.82530  0.36360  0.51151  1.0000
  C  Sn37      1.0  0.69537  0.15951  0.67740  1.0000
  C   C235      1.0  0.70293  0.18685  0.70394  1.0000
  C  Sn38      1.0  0.68519  0.19280  0.77794  1.0000
  C  Sn39      1.0  0.65936  0.17096  0.82653  1.0000
  C   C236      1.0  0.65180  0.14364  0.80001  1.0000
  C  Sn40      1.0  0.66953  0.13768  0.72599  1.0000
  O  Te37      1.0  0.71343  0.15405  0.60322  1.0000
  O  Te38      1.0  0.69321  0.22029  0.80314  1.0000
  O  Te39      1.0  0.64129  0.17645  0.90075  1.0000
  O  Te40      1.0  0.66153  0.11020  0.70081  1.0000
  Mg  Mg19      1.0  0.66149  0.21724  0.90896  1.0000
  Mg  Mg20      1.0  0.69323  0.11323  0.59508  1.0000
  C  Sn41      1.0  0.49219  0.75497  0.74178  1.0000
  C   C237      1.0  0.51598  0.78059  0.76485  1.0000
  C  Sn42      1.0  0.54212  0.78365  0.75175  1.0000
  C  Sn43      1.0  0.54454  0.76063  0.71472  1.0000
  C   C238      1.0  0.52076  0.73503  0.69165  1.0000
  C  Sn44      1.0  0.49460  0.73195  0.70475  1.0000
  O  Te41      1.0  0.46626  0.75239  0.75545  1.0000
  O  Te42      1.0  0.56561  0.80946  0.77538  1.0000
  O  Te43      1.0  0.57049  0.76323  0.70106  1.0000
  O  Te44      1.0  0.47113  0.70616  0.68111  1.0000
  Mg  Mg21      1.0  0.59635  0.80261  0.74385  1.0000
  Mg  Mg22      1.0  0.44037  0.71299  0.71254  1.0000
  C  Sn45      1.0  0.03927  0.45386  0.81154  1.0000
  C   C239      1.0  0.06411  0.47036  0.73833  1.0000
  C  Sn46      1.0  0.07072  0.49654  0.67943  1.0000
  C  Sn47      1.0  0.05214  0.50645  0.69410  1.0000
  C   C240      1.0  0.02732  0.48996  0.76730  1.0000
  C  Sn48      1.0  0.02069  0.46377  0.82620  1.0000
  O  Te45      1.0  0.03309  0.42776  0.86956  1.0000
  O  Te46      1.0  0.09567  0.51264  0.60666  1.0000
  O  Te47      1.0  0.05834  0.53257  0.63600  1.0000
  O  Te48      1.0  0.99576  0.44767  0.89896  1.0000
  Mg  Mg23      1.0  0.09484  0.54680  0.54647  1.0000
  Mg  Mg24      1.0  0.99657  0.41352  0.95926  1.0000
  C  Sn49      1.0  0.49536  0.56505  0.19658  1.0000
  C   C241      1.0  0.51622  0.58823  0.27114  1.0000
  C  Sn50      1.0  0.54024  0.58865  0.32864  1.0000
  C  Sn51      1.0  0.54348  0.56542  0.31118  1.0000
  C   C242      1.0  0.52263  0.54226  0.23664  1.0000
  C  Sn52      1.0  0.49860  0.54182  0.17911  1.0000
  O  Te49      1.0  0.47152  0.56508  0.13998  1.0000
  O  Te50      1.0  0.56081  0.61206  0.40281  1.0000
  O  Te51      1.0  0.56735  0.56540  0.36786  1.0000
  O  Te52      1.0  0.47804  0.51843  0.10497  1.0000
  Mg  Mg25      1.0  0.58952  0.60212  0.46017  1.0000
  Mg  Mg26      1.0  0.44933  0.52835  0.04749  1.0000
  C  Sn53      1.0  0.48342  0.65814  0.30023  1.0000
  C   C243      1.0  0.50144  0.65075  0.24200  1.0000
  C  Sn54      1.0  0.52789  0.67105  0.20016  1.0000
  C  Sn55      1.0  0.53653  0.69933  0.21695  1.0000
  C   C244      1.0  0.51852  0.70671  0.27517  1.0000
  C  Sn56      1.0  0.49206  0.68641  0.31702  1.0000
  O  Te53      1.0  0.45707  0.63749  0.34133  1.0000
  O  Te54      1.0  0.54553  0.66316  0.14216  1.0000
  O  Te55      1.0  0.56291  0.71998  0.17578  1.0000
  O  Te56      1.0  0.47443  0.69429  0.37501  1.0000
  Mg  Mg27      1.0  0.57943  0.69888  0.10227  1.0000
  Mg  Mg28      1.0  0.44053  0.65859  0.41500  1.0000
  C  Sn57      1.0  0.24776  0.50647  0.69992  1.0000
  C   C245      1.0  0.22017  0.48630  0.72032  1.0000
  C  Sn58      1.0  0.21344  0.46006  0.77878  1.0000
  C  Sn59      1.0  0.23473  0.45386  0.81776  1.0000
  C   C246      1.0  0.26229  0.47403  0.79738  1.0000
  C  Sn60      1.0  0.26904  0.50027  0.73890  1.0000
  O  Te57      1.0  0.25401  0.53256  0.64131  1.0000
  O  Te58      1.0  0.18572  0.44023  0.79811  1.0000
  O  Te59      1.0  0.22845  0.42775  0.87641  1.0000
  O  Te60      1.0  0.29675  0.52009  0.71959  1.0000
  Mg  Mg29      1.0  0.18763  0.40769  0.88199  1.0000
  Mg  Mg30      1.0  0.29486  0.55265  0.63581  1.0000
  C  Sn61      1.0  0.82597  0.48652  0.30575  1.0000
  C   C247      1.0  0.85119  0.50323  0.23654  1.0000
  C  Sn62      1.0  0.85833  0.52978  0.18194  1.0000
  C  Sn63      1.0  0.83988  0.53985  0.19692  1.0000
  C   C248      1.0  0.81469  0.52315  0.26612  1.0000
  C  Sn64      1.0  0.80753  0.49659  0.32073  1.0000
  O  Te61      1.0  0.81927  0.46004  0.35952  1.0000
  O  Te62      1.0  0.88365  0.54609  0.11311  1.0000
  O  Te63      1.0  0.84661  0.56635  0.14308  1.0000
  O  Te64      1.0  0.78223  0.48029  0.38954  1.0000
  Mg  Mg31      1.0  0.88348  0.58074  0.05794  1.0000
  Mg  Mg32      1.0  0.78239  0.44564  0.44483  1.0000
  C  Sn65      1.0  0.25941  0.75253  0.21251  1.0000
  C   C249      1.0  0.26642  0.78023  0.21489  1.0000
  C  Sn66      1.0  0.24702  0.78731  0.25476  1.0000
  C  Sn67      1.0  0.22008  0.76627  0.29314  1.0000
  C   C250      1.0  0.21309  0.73860  0.29077  1.0000
  C  Sn68      1.0  0.23246  0.73149  0.25089  1.0000
  O  Te65      1.0  0.27913  0.74593  0.17232  1.0000
  O  Te66      1.0  0.25450  0.81515  0.25627  1.0000
  O  Te67      1.0  0.20036  0.77290  0.33334  1.0000
  O  Te68      1.0  0.22500  0.70368  0.24939  1.0000
  Mg  Mg33      1.0  0.22042  0.81375  0.31878  1.0000
  Mg  Mg34      1.0  0.25907  0.70506  0.18698  1.0000
  C  Sn69      1.0  0.44058  0.51253  0.81916  1.0000
  C   C251      1.0  0.41572  0.49496  0.74124  1.0000
  C  Sn70      1.0  0.41155  0.47055  0.68034  1.0000
  C  Sn71      1.0  0.43266  0.46354  0.69776  1.0000
  C   C252      1.0  0.45749  0.48110  0.77566  1.0000
  C  Sn72      1.0  0.46168  0.50552  0.83658  1.0000
  O  Te69      1.0  0.44430  0.53682  0.87911  1.0000
  O  Te70      1.0  0.38654  0.45332  0.60285  1.0000
  O  Te71      1.0  0.42892  0.43922  0.63772  1.0000
  O  Te72      1.0  0.48668  0.52273  0.91405  1.0000
  Mg  Mg35      1.0  0.39127  0.42247  0.54162  1.0000
  Mg  Mg36      1.0  0.48196  0.55358  0.97539  1.0000
  C  Sn73      1.0  0.54039  0.83661  0.88031  1.0000
  C   C253      1.0  0.52230  0.81484  0.78665  1.0000
  C  Sn74      1.0  0.50790  0.81930  0.66324  1.0000
  C  Sn75      1.0  0.51167  0.84607  0.63274  1.0000
  C   C254      1.0  0.52975  0.86782  0.72635  1.0000
  C  Sn76      1.0  0.54416  0.86339  0.84981  1.0000
  O  Te73      1.0  0.54756  0.83649  0.00306  1.0000
  O  Te74      1.0  0.48992  0.79721  0.57125  1.0000
  O  Te75      1.0  0.49747  0.85099  0.50988  1.0000
  O  Te76      1.0  0.56213  0.88546  0.94175  1.0000
  Mg  Mg37      1.0  0.47528  0.81428  0.41750  1.0000
  Mg  Mg38      1.0  0.56978  0.87322  0.09548  1.0000
  C  Sn77      1.0  0.05135  0.49728  0.12329  1.0000
  C   C255      1.0  0.02713  0.48208  0.20377  1.0000
  C  Sn78      1.0  0.02567  0.46381  0.32250  1.0000
  C  Sn79      1.0  0.04891  0.46066  0.36168  1.0000
  C   C256      1.0  0.07311  0.47585  0.28125  1.0000
  C  Sn80      1.0  0.07459  0.49413  0.16248  1.0000
  O  Te77      1.0  0.05235  0.51543  0.00502  1.0000
  O  Te78      1.0  0.00123  0.44883  0.40127  1.0000
  O  Te79      1.0  0.04789  0.44249  0.48006  1.0000
  O  Te80      1.0  0.09901  0.50910  0.08376  1.0000
  Mg  Mg39      1.0  0.01000  0.42669  0.55360  1.0000
  Mg  Mg40      1.0  0.09728  0.52646  0.93146  1.0000
  C  Sn81      1.0  0.43473  0.93171  0.18277  1.0000
  C   C257      1.0  0.41186  0.92755  0.26100  1.0000
  C  Sn82      1.0  0.41180  0.94975  0.32609  1.0000
  C  Sn83      1.0  0.43507  0.97666  0.31264  1.0000
  C   C258      1.0  0.45792  0.98081  0.23443  1.0000
  C  Sn84      1.0  0.45800  0.95863  0.16932  1.0000
  O  Te81      1.0  0.43434  0.90922  0.11859  1.0000
  O  Te82      1.0  0.38870  0.94507  0.40380  1.0000
  O  Te83      1.0  0.93301  0.99916  0.37691  1.0000
  O  Te84      1.0  0.48108  0.96329  0.09163  1.0000
  Mg  Mg41      1.0  0.39906  0.98233  0.47157  1.0000
  Mg  Mg42      1.0  0.47073  0.92605  0.02375  1.0000
  C  Sn85      1.0  0.45264  0.15757  0.84638  1.0000
  C   C259      1.0  0.47289  0.18247  0.78211  1.0000
  C  Sn86      1.0  0.49129  0.18270  0.68053  1.0000
  C  Sn87      1.0  0.48941  0.15751  0.64230  1.0000
  C   C260      1.0  0.46918  0.13262  0.70653  1.0000
  C  Sn88      1.0  0.45077  0.13238  0.80815  1.0000
  O  Te85      1.0  0.43446  0.15783  0.94767  1.0000
  O  Te86      1.0  0.51136  0.20785  0.61778  1.0000
  O  Te87      1.0  0.50762  0.15726  0.54093  1.0000
  O  Te88      1.0  0.43071  0.10725  0.87086  1.0000
  Mg  Mg43      1.0  0.53139  0.19680  0.48532  1.0000
  Mg  Mg44      1.0  0.40365  0.12307  0.00327  1.0000
  C  Sn89      1.0  0.78299  0.54613  0.80563  1.0000
  C   C261      1.0  0.78414  0.52178  0.80497  1.0000
  C  Sn90      1.0  0.76077  0.49703  0.76186  1.0000
  C  Sn91      1.0  0.73575  0.49660  0.71840  1.0000
  C   C262      1.0  0.73462  0.52094  0.71904  1.0000
  C  Sn92      1.0  0.75797  0.54571  0.76217  1.0000
  O  Te89      1.0  0.80660  0.57065  0.84914  1.0000
  O  Te90      1.0  0.76242  0.47294  0.76215  1.0000
  O  Te91      1.0  0.71213  0.47206  0.67487  1.0000
  O  Te92      1.0  0.75634  0.56978  0.76186  1.0000
  Mg  Mg45      1.0  0.72468  0.44467  0.69367  1.0000
  Mg  Mg46      1.0  0.79406  0.59807  0.83024  1.0000
  C  Sn93      1.0  0.81543  0.49229  0.87669  1.0000
  C   C263      1.0  0.81212  0.51396  0.81391  1.0000
  C  Sn94      1.0  0.83101  0.53302  0.71099  1.0000
  C  Sn95      1.0  0.85367  0.53037  0.66988  1.0000
  C   C264      1.0  0.85697  0.50871  0.73263  1.0000
  C  Sn96      1.0  0.83809  0.48964  0.83558  1.0000
  O  Te93      1.0  0.79630  0.47346  0.97935  1.0000
  O  Te94      1.0  0.82728  0.55452  0.64978  1.0000
  O  Te95      1.0  0.87281  0.54922  0.56714  1.0000
  O  Te96      1.0  0.84182  0.46815  0.89676  1.0000
  Mg  Mg47      1.0  0.85887  0.57496  0.51451  1.0000
  Mg  Mg48      1.0  0.80322  0.45249  0.03197  1.0000
  C  Sn97      1.0  0.84003  0.29619  0.37968  1.0000
  C   C265      1.0  0.81655  0.29164  0.29152  1.0000
  C  Sn98      1.0  0.81866  0.30966  0.16985  1.0000
  C  Sn99      1.0  0.84479  0.33269  0.13549  1.0000
  C   C266      1.0  0.86825  0.33723  0.22360  1.0000
  C  Sn100     1.0  0.86616  0.31923  0.34532  1.0000
  O  Te97      1.0  0.83744  0.27791  0.50078  1.0000
  O  Te98      1.0  0.79489  0.30468  0.08338  1.0000
  O  Te99      1.0  0.84736  0.35097  0.01428  1.0000
  O  Te100     1.0  0.88991  0.32419  0.43174  1.0000
  Mg  Mg49      1.0  0.81601  0.33065  0.92987  1.0000
  Mg  Mg50      1.0  0.87582  0.29343  0.58522  1.0000
  C  Sn101     1.0  0.77444  0.23619  0.62377  1.0000
  C   C267      1.0  0.78406  0.26134  0.69468  1.0000
  C  Sn102     1.0  0.76863  0.26380  0.80587  1.0000
  C  Sn103     1.0  0.74305  0.24063  0.84712  1.0000
  C   C268      1.0  0.73345  0.21549  0.77625  1.0000
  C  Sn104     1.0  0.74887  0.21301  0.66502  1.0000
  O  Te101     1.0  0.79022  0.23420  0.51292  1.0000
  O  Te102     1.0  0.77867  0.28917  0.87513  1.0000
  O  Te103     1.0  0.72728  0.24264  0.95806  1.0000
  O  Te104     1.0  0.73884  0.18767  0.59580  1.0000
  Mg  Mg51      1.0  0.74268  0.28637  0.01984  1.0000
  Mg  Mg52      1.0  0.76781  0.19524  0.45114  1.0000
  C  Sn105     1.0  0.50477  0.25892  0.69497  1.0000
  C   C269      1.0  0.48368  0.26530  0.69867  1.0000
  C  Sn106     1.0  0.45694  0.24484  0.73480  1.0000
  C  Sn107     1.0  0.45115  0.21742  0.76803  1.0000
  C   C270      1.0  0.47223  0.21106  0.76436  1.0000
  C  Sn108     1.0  0.49899  0.23150  0.72820  1.0000
  O  Te105     1.0  0.53136  0.27970  0.65857  1.0000
  O  Te106     1.0  0.43619  0.25171  0.73772  1.0000
  O  Te107     1.0  0.42453  0.19664  0.80445  1.0000
  O  Te108     1.0  0.51972  0.22464  0.72530  1.0000
  Mg  Mg53      1.0  0.40325  0.21620  0.79369  1.0000
  Mg  Mg54      1.0  0.55268  0.26014  0.66943  1.0000
  C  Sn109     1.0  0.48570  0.17344  0.13074  1.0000
  C   C271      1.0  0.46894  0.18083  0.20383  1.0000
  C  Sn110     1.0  0.45249  0.16425  0.32273  1.0000
  C  Sn111     1.0  0.45280  0.13978  0.36963  1.0000
  C   C272      1.0  0.46955  0.13240  0.29659  1.0000
  C  Sn112     1.0  0.48601  0.14897  0.17765  1.0000
  O  Te109     1.0  0.50198  0.19033  0.01215  1.0000
  O  Te110     1.0  0.43590  0.17206  0.39403  1.0000
  O  Te111     1.0  0.43649  0.12289  0.48833  1.0000
  O  Te112     1.0  0.50260  0.14117  0.10639  1.0000
  Mg  Mg55      1.0  0.41737  0.14228  0.55002  1.0000
  Mg  Mg56      1.0  0.52815  0.16615  0.95045  1.0000
  C  Sn113     1.0  0.50316  0.05362  0.38787  1.0000
  C   C273      1.0  0.48603  0.02981  0.30564  1.0000
  C  Sn114     1.0  0.46995  0.03069  0.17973  1.0000
  C  Sn115     1.0  0.47102  0.05591  0.13500  1.0000
  C   C274      1.0  0.48814  0.07970  0.21718  1.0000
  C  Sn116     1.0  0.50423  0.07884  0.34313  1.0000
  O  Te113     1.0  0.51906  0.05226  0.51336  1.0000
  O  Te114     1.0  0.45298  0.00661  0.09934  1.0000
  O  Te115     1.0  0.45510  0.05725  0.00940  1.0000
  O  Te116     1.0  0.52120  0.10290  0.42348  1.0000
  Mg  Mg57      1.0  0.44223  0.01413  0.93638  1.0000
  Mg  Mg58      1.0  0.53898  0.09061  0.58641  1.0000
  C  Sn117     1.0  0.50515  0.82448  0.13542  1.0000
  C   C275      1.0  0.52325  0.81615  0.20119  1.0000
  C  Sn118     1.0  0.54250  0.83155  0.31626  1.0000
  C  Sn119     1.0  0.54368  0.85577  0.36672  1.0000
  C   C276      1.0  0.52558  0.86409  0.30099  1.0000
  C  Sn120     1.0  0.50633  0.84870  0.18589  1.0000
  O  Te117     1.0  0.48607  0.80877  0.02055  1.0000
  O  Te118     1.0  0.56038  0.82281  0.38023  1.0000
  O  Te119     1.0  0.56278  0.87148  0.48169  1.0000
  O  Te120     1.0  0.48845  0.85743  0.12195  1.0000
  Mg  Mg59      1.0  0.58275  0.85114  0.53348  1.0000
  Mg  Mg60      1.0  0.47308  0.82431  0.96876  1.0000
