data_image0
_chemical_formula_structural       C3H2N2C3H2N2C3H2N2C3H2N2C3H2N2C3H2N2C3H2N2C3H2N2C3H2N2C3H2N2C3H2N2C3H2N2C2Sn2C2HTe2HMgC2Sn2C2HTe2HMgC2Sn2C2HTe2HMgC2Sn2C2HTe2HMgC2Sn2C2HTe2HMgC2Sn2C2HTe2HMgC2Sn2C2HTe2HMgC2Sn2C2HTe2HMgC2Sn2C2HTe2HMgC2Sn2C2HTe2HMgC2Sn2C2HTe2HMgC2Sn2C2HTe2HMgC2Sn2C2HTe2HMgC2Sn2C2HTe2HMgC2Sn2C2HTe2HMgC2Sn2C2HTe2HMgC2Sn2C2HTe2HMgC2Sn2C2HTe2HMgC2Sn2C2HTe2HMgC2Sn2C2HTe2HMgC2Sn2C2HTe2HMgC2Sn2C2HTe2HMgC2Sn2C2HTe2HMgC2Sn2C2HTe2HMgC2Sn2C2HTe2HMgC2Sn2C2HTe2HMgC2Sn2C2HTe2HMgC2Sn2C2HTe2HMgC2Sn2C2HTe2HMgC2Sn2C2HTe2HMgC2Sn2C2HTe2HMgC2Sn2C2HTe2HMgC2Sn2C2HTe2HMgC2Sn2C2HTe2HMgC2Sn2C2HTe2HMgC2Sn2C2HTe2HMgC2Sn2C2HTe2HMgC2Sn2C2HTe2HMgC2Sn2C2HTe2HMgC2Sn2C2HTe2HMgC2Sn2C2HTe2HMgC2Sn2C2HTe2HMgC2Sn2C2HTe2HMgC2Sn2C2HTe2HMgC2Sn2C2HTe2HMgC2Sn2C2HTe2HMgC2Sn2C2HTe2HMgC2Sn2C2HTe2HMgC2Sn2C2HTe2HMgC2Sn2C2HTe2HMgC2Sn2C2HTe2HMgC2Sn2C2HTe2HMgC2Sn2C2HTe2HMgC2Sn2C2HTe2HMgC2Sn2C2HTe2HMgC2Sn2C2HTe2HMgC2Sn2C2HTe2HMgC2Sn2C2HTe2HMgC2Sn2C2HTe2HMgC2Sn2C2HTe2HMg
_chemical_formula_sum              "C276 H144 N24 Sn120 Te120 Mg60"
_cell_length_a       55.989
_cell_length_b       56.0161
_cell_length_c       8.7673
_cell_angle_alpha    86.9538
_cell_angle_beta     93.449
_cell_angle_gamma    120.145

_symmetry_space_group_name_H-M    'P1'
_space_group_IT_number       1

loop_
  _space_group_symop_operation_xyz
  'x, y, z'

loop_
  _atom_site_type_symbol
  _atom_site_label
  _atom_site_symmetry_multiplicity
  _atom_site_fract_x
  _atom_site_fract_y
  _atom_site_fract_z
  _atom_site_occupancy
  C   C1        1.0  0.48800  0.48772  0.25678  1.0000
  C   C2        1.0  0.36341  0.46876  0.29073  1.0000
  C   C3        1.0  0.49275  0.37427  0.29052  1.0000
  H   H1        1.0  0.36119  0.44847  0.32198  1.0000
  H   H2        1.0  0.51346  0.39144  0.32145  1.0000
  N   N1        1.0  0.38737  0.49041  0.27284  1.0000
  N   N2        1.0  0.47201  0.37817  0.26401  1.0000
  C   C4        1.0  0.51211  0.99952  0.26282  1.0000
  C   C5        1.0  0.52810  0.89124  0.27908  1.0000
  C   C6        1.0  0.62673  0.11710  0.29433  1.0000
  H   H3        1.0  0.54837  0.90827  0.31754  1.0000
  H   H4        1.0  0.61058  0.11999  0.34158  1.0000
  N   N3        1.0  0.50700  0.89465  0.25584  1.0000
  N   N4        1.0  0.62200  0.09307  0.25776  1.0000
  C   C7        1.0  0.00186  0.51256  0.25120  1.0000
  C   C8        1.0  0.10781  0.63803  0.28155  1.0000
  C   C9        1.0  0.88319  0.50782  0.26996  1.0000
  H   H5        1.0  0.09020  0.63991  0.31504  1.0000
  H   H6        1.0  0.87986  0.48754  0.31231  1.0000
  N   N5        1.0  0.10526  0.61431  0.25797  1.0000
  N   N6        1.0  0.90739  0.52767  0.23505  1.0000
  C   C10       1.0  0.51365  0.51180  0.25532  1.0000
  C   C11       1.0  0.63864  0.53022  0.27944  1.0000
  C   C12       1.0  0.50759  0.62444  0.28242  1.0000
  H   H7        1.0  0.64051  0.54873  0.32945  1.0000
  H   H8        1.0  0.48748  0.60691  0.31534  1.0000
  N   N7        1.0  0.61478  0.50945  0.24412  1.0000
  N   N8        1.0  0.52819  0.62106  0.25722  1.0000
  C   C13       1.0  0.48824  0.00142  0.25624  1.0000
  C   C14       1.0  0.46755  0.10611  0.27280  1.0000
  C   C15       1.0  0.37580  0.88309  0.26517  1.0000
  H   H9        1.0  0.44853  0.08819  0.31491  1.0000
  H   H10       1.0  0.39366  0.88010  0.28974  1.0000
  N   N9        1.0  0.48871  0.10411  0.24255  1.0000
  N   N10       1.0  0.37889  0.90749  0.24627  1.0000
  C   C16       1.0  0.00093  0.48725  0.25369  1.0000
  C   C17       1.0  0.89342  0.36262  0.27520  1.0000
  C   C18       1.0  0.11878  0.49105  0.28416  1.0000
  H   H11       1.0  0.91059  0.36017  0.32523  1.0000
  H   H12       1.0  0.12198  0.51072  0.32535  1.0000
  N   N11       1.0  0.89679  0.38665  0.23813  1.0000
  N   N12       1.0  0.09432  0.47102  0.25017  1.0000
  C   C19       1.0  0.48700  0.48784  0.75480  1.0000
  C   C20       1.0  0.36187  0.46818  0.79850  1.0000
  C   C21       1.0  0.49109  0.37358  0.78633  1.0000
  H   H13       1.0  0.36069  0.44983  0.85837  1.0000
  H   H14       1.0  0.51129  0.38998  0.83009  1.0000
  N   N13       1.0  0.38486  0.48820  0.75084  1.0000
  N   N14       1.0  0.47119  0.37836  0.74962  1.0000
  C   C22       1.0  0.51272  0.99962  0.76467  1.0000
  C   C23       1.0  0.52877  0.89180  0.78151  1.0000
  C   C24       1.0  0.62545  0.11835  0.77989  1.0000
  H   H15       1.0  0.54671  0.90737  0.84796  1.0000
  H   H16       1.0  0.60790  0.12165  0.79334  1.0000
  N   N15       1.0  0.50945  0.89636  0.72872  1.0000
  N   N16       1.0  0.62209  0.09379  0.77559  1.0000
  C   C25       1.0  0.00057  0.51342  0.75043  1.0000
  C   C26       1.0  0.10716  0.63837  0.77450  1.0000
  C   C27       1.0  0.88187  0.50683  0.77674  1.0000
  H   H17       1.0  0.08978  0.64079  0.80648  1.0000
  H   H18       1.0  0.87893  0.48612  0.80397  1.0000
  N   N17       1.0  0.10429  0.61439  0.75562  1.0000
  N   N18       1.0  0.90609  0.52782  0.75411  1.0000
  C   C28       1.0  0.51230  0.51232  0.75436  1.0000
  C   C29       1.0  0.63852  0.53306  0.76181  1.0000
  C   C30       1.0  0.50834  0.62626  0.76416  1.0000
  H   H19       1.0  0.64138  0.55358  0.78242  1.0000
  H   H20       1.0  0.48806  0.60905  0.79743  1.0000
  N   N19       1.0  0.61428  0.51130  0.75432  1.0000
  N   N20       1.0  0.52866  0.62229  0.74196  1.0000
  C   C31       1.0  0.48868  0.00118  0.75740  1.0000
  C   C32       1.0  0.46916  0.10691  0.76033  1.0000
  C   C33       1.0  0.37435  0.88346  0.77701  1.0000
  H   H21       1.0  0.44905  0.08887  0.78847  1.0000
  H   H22       1.0  0.39135  0.88026  0.82254  1.0000
  N   N21       1.0  0.49079  0.10474  0.74627  1.0000
  N   N22       1.0  0.37843  0.90787  0.74190  1.0000
  C   C34       1.0  0.99943  0.48803  0.75413  1.0000
  C   C35       1.0  0.89485  0.36133  0.75622  1.0000
  C   C36       1.0  0.11921  0.49464  0.78536  1.0000
  H   H23       1.0  0.91295  0.35847  0.77119  1.0000
  H   H24       1.0  0.12285  0.51506  0.81586  1.0000
  N   N23       1.0  0.89703  0.38540  0.75479  1.0000
  N   N24       1.0  0.09452  0.47410  0.76261  1.0000
  C   C37       1.0  0.42997  0.46495  0.17386  1.0000
  C   C38       1.0  0.45595  0.48326  0.23844  1.0000
  C  Sn1       1.0  0.45918  0.50414  0.33248  1.0000
  C  Sn2       1.0  0.43593  0.50667  0.36224  1.0000
  C   C39       1.0  0.41002  0.48823  0.29718  1.0000
  C   C40       1.0  0.40702  0.46742  0.20321  1.0000
  H   H25       1.0  0.42765  0.44884  0.10122  1.0000
  O  Te1       1.0  0.48529  0.52227  0.39603  1.0000
  O  Te2       1.0  0.43857  0.52734  0.45586  1.0000
  H   H26       1.0  0.38690  0.45323  0.15330  1.0000
  Mg  Mg1       1.0  0.47841  0.54705  0.51604  1.0000
  C   C41       1.0  0.50001  0.43348  0.15177  1.0000
  C   C42       1.0  0.48284  0.41042  0.24190  1.0000
  C  Sn3       1.0  0.46438  0.41146  0.33800  1.0000
  C  Sn4       1.0  0.46313  0.43608  0.34370  1.0000
  C   C43       1.0  0.48038  0.45903  0.25300  1.0000
  C   C44       1.0  0.49878  0.45776  0.15727  1.0000
  H   H27       1.0  0.51424  0.43249  0.07763  1.0000
  O  Te3       1.0  0.44738  0.38824  0.42733  1.0000
  O  Te4       1.0  0.44487  0.43768  0.43870  1.0000
  H   H28       1.0  0.51206  0.47561  0.08743  1.0000
  Mg  Mg2       1.0  0.42591  0.40056  0.53874  1.0000
  C   C45       1.0  0.33475  0.49797  0.20017  1.0000
  C   C46       1.0  0.33914  0.47728  0.26812  1.0000
  C  Sn5       1.0  0.31701  0.45297  0.32570  1.0000
  C  Sn6       1.0  0.29001  0.44936  0.31486  1.0000
  C   C47       1.0  0.28583  0.47016  0.24658  1.0000
  C   C48       1.0  0.30812  0.49441  0.18938  1.0000
  H   H29       1.0  0.35199  0.51672  0.15583  1.0000
  O  Te5       1.0  0.32177  0.43252  0.39328  1.0000
  O  Te6       1.0  0.26752  0.42526  0.37142  1.0000
  H   H30       1.0  0.30471  0.51041  0.13668  1.0000
  Mg  Mg3       1.0  0.28448  0.40335  0.45358  1.0000
  C   C49       1.0  0.46000  0.30328  0.20683  1.0000
  C   C50       1.0  0.47903  0.29486  0.25292  1.0000
  C  Sn7       1.0  0.50411  0.31321  0.32610  1.0000
  C  Sn8       1.0  0.51019  0.34048  0.35353  1.0000
  C   C51       1.0  0.49101  0.34869  0.30708  1.0000
  C   C52       1.0  0.46598  0.33017  0.23390  1.0000
  H   H31       1.0  0.44063  0.28894  0.15029  1.0000
  O  Te7       1.0  0.52289  0.30447  0.37134  1.0000
  O  Te8       1.0  0.53510  0.35924  0.42649  1.0000
  H   H32       1.0  0.45124  0.33668  0.19832  1.0000
  Mg  Mg4       1.0  0.55405  0.33760  0.46666  1.0000
  C   C53       1.0  0.44971  0.23444  0.28448  1.0000
  C   C54       1.0  0.47398  0.26012  0.28728  1.0000
  C  Sn9       1.0  0.49948  0.26203  0.26780  1.0000
  C  Sn10      1.0  0.50063  0.23775  0.24507  1.0000
  C   C55       1.0  0.47623  0.21215  0.24234  1.0000
  C   C56       1.0  0.45083  0.21048  0.26201  1.0000
  H   H33       1.0  0.43006  0.23314  0.29961  1.0000
  O  Te9       1.0  0.52352  0.28785  0.27096  1.0000
  O  Te10      1.0  0.52583  0.23906  0.22523  1.0000
  H   H34       1.0  0.43204  0.19059  0.25974  1.0000
  Mg  Mg5       1.0  0.55292  0.27902  0.23858  1.0000
  C   C57       1.0  0.21707  0.45110  0.23301  1.0000
  C   C58       1.0  0.21495  0.47424  0.26201  1.0000
  C  Sn11      1.0  0.23874  0.49999  0.28078  1.0000
  C  Sn12      1.0  0.26513  0.50257  0.27021  1.0000
  C   C59       1.0  0.26704  0.47929  0.24105  1.0000
  C   C60       1.0  0.24309  0.45362  0.22251  1.0000
  H   H35       1.0  0.19855  0.43123  0.21858  1.0000
  O  Te11      1.0  0.23624  0.52290  0.30974  1.0000
  O  Te12      1.0  0.28925  0.52807  0.28844  1.0000
  H   H36       1.0  0.24474  0.43571  0.19996  1.0000
  Mg  Mg6       1.0  0.27515  0.55324  0.32619  1.0000
  C   C61       1.0  0.53482  0.96572  0.18318  1.0000
  C   C62       1.0  0.51642  0.97204  0.24675  1.0000
  C  Sn13      1.0  0.49450  0.95199  0.33115  1.0000
  C  Sn14      1.0  0.49098  0.92514  0.35215  1.0000
  C   C63       1.0  0.50951  0.91903  0.28819  1.0000
  C   C64       1.0  0.53137  0.93924  0.20389  1.0000
  H   H37       1.0  0.55174  0.98137  0.11803  1.0000
  O  Te13      1.0  0.47630  0.95865  0.39382  1.0000
  O  Te14      1.0  0.46926  0.90471  0.43605  1.0000
  H   H38       1.0  0.54562  0.93435  0.15478  1.0000
  Mg  Mg7       1.0  0.44988  0.92378  0.49895  1.0000
  C   C65       1.0  0.58437  0.03952  0.36255  1.0000
  C   C66       1.0  0.59459  0.06419  0.27647  1.0000
  C  Sn15      1.0  0.57672  0.06948  0.18165  1.0000
  C  Sn16      1.0  0.54810  0.04969  0.17312  1.0000
  C   C67       1.0  0.53807  0.02508  0.25978  1.0000
  C   C68       1.0  0.55614  0.01999  0.35425  1.0000
  H   H39       1.0  0.59834  0.03558  0.43572  1.0000
  O  Te15      1.0  0.58728  0.09423  0.09637  1.0000
  O  Te16      1.0  0.52978  0.05446  0.07932  1.0000
  H   H40       1.0  0.54821  0.00090  0.42096  1.0000
  Mg  Mg8       1.0  0.56109  0.08646  0.98513  1.0000
  C   C69       1.0  0.49877  0.82136  0.17173  1.0000
  C   C70       1.0  0.51797  0.81344  0.22283  1.0000
  C  Sn17      1.0  0.54186  0.83164  0.30602  1.0000
  C  Sn18      1.0  0.54655  0.85823  0.33850  1.0000
  C   C71       1.0  0.52720  0.86595  0.28697  1.0000
  C   C72       1.0  0.50338  0.84758  0.20378  1.0000
  H   H41       1.0  0.48032  0.80714  0.10744  1.0000
  O  Te17      1.0  0.56083  0.82340  0.35616  1.0000
  O  Te18      1.0  0.57024  0.87682  0.42146  1.0000
  H   H42       1.0  0.48850  0.85371  0.16432  1.0000
  Mg  Mg9       1.0  0.59001  0.85605  0.46510  1.0000
  C   C73       1.0  0.67870  0.18624  0.35679  1.0000
  C   C74       1.0  0.70180  0.19005  0.28239  1.0000
  C  Sn19      1.0  0.69998  0.16914  0.19393  1.0000
  C  Sn20      1.0  0.67454  0.14396  0.17989  1.0000
  C   C75       1.0  0.65154  0.14035  0.25469  1.0000
  C   C76       1.0  0.65359  0.16141  0.34295  1.0000
  H   H43       1.0  0.68027  0.20254  0.42502  1.0000
  O  Te19      1.0  0.72326  0.17329  0.12040  1.0000
  O  Te20      1.0  0.67215  0.12272  0.09215  1.0000
  H   H44       1.0  0.63570  0.15846  0.40047  1.0000
  Mg  Mg10      1.0  0.70969  0.13820  0.01384  1.0000
  C   C77       1.0  0.75501  0.26227  0.24384  1.0000
  C   C78       1.0  0.78104  0.26449  0.24913  1.0000
  C  Sn21      1.0  0.78336  0.24086  0.24337  1.0000
  C  Sn22      1.0  0.75913  0.21456  0.23206  1.0000
  C   C79       1.0  0.73318  0.21256  0.22673  1.0000
  C   C80       1.0  0.73110  0.23634  0.23262  1.0000
  H   H45       1.0  0.75339  0.28067  0.24832  1.0000
  O  Te21      1.0  0.80953  0.24345  0.24884  1.0000
  O  Te22      1.0  0.76085  0.19060  0.22604  1.0000
  H   H46       1.0  0.71094  0.23462  0.22842  1.0000
  Mg  Mg11      1.0  0.80119  0.20477  0.23717  1.0000
  C   C81       1.0  0.54606  0.76343  0.26862  1.0000
  C   C82       1.0  0.52241  0.73726  0.26672  1.0000
  C  Sn23      1.0  0.49622  0.73459  0.24832  1.0000
  C  Sn24      1.0  0.49373  0.75859  0.23150  1.0000
  C   C83       1.0  0.51752  0.78467  0.23345  1.0000
  C   C84       1.0  0.54363  0.78711  0.25198  1.0000
  H   H47       1.0  0.56626  0.76532  0.28287  1.0000
  O  Te23      1.0  0.47280  0.70829  0.24673  1.0000
  O  Te24      1.0  0.46781  0.75651  0.21288  1.0000
  H   H48       1.0  0.56194  0.80737  0.25335  1.0000
  Mg  Mg12      1.0  0.44201  0.71612  0.21826  1.0000
  C   C85       1.0  0.03529  0.57020  0.16108  1.0000
  C   C86       1.0  0.02905  0.54482  0.23098  1.0000
  C  Sn25      1.0  0.04876  0.54252  0.32627  1.0000
  C  Sn26      1.0  0.07518  0.56611  0.35189  1.0000
  C   C87       1.0  0.08121  0.59141  0.28152  1.0000
  C   C88       1.0  0.06135  0.59347  0.18634  1.0000
  H   H49       1.0  0.01992  0.57180  0.08750  1.0000
  O  Te25      1.0  0.04218  0.51701  0.39515  1.0000
  O  Te26      1.0  0.09526  0.56440  0.44665  1.0000
  H   H50       1.0  0.06618  0.61313  0.13232  1.0000
  Mg  Mg13      1.0  0.07647  0.52509  0.51470  1.0000
  C   C89       1.0  0.94469  0.49548  0.15012  1.0000
  C   C90       1.0  0.97128  0.51226  0.21275  1.0000
  C  Sn27      1.0  0.97715  0.53520  0.29695  1.0000
  C  Sn28      1.0  0.95595  0.54140  0.31869  1.0000
  C   C91       1.0  0.92941  0.52448  0.25566  1.0000
  C   C92       1.0  0.92377  0.50157  0.17156  1.0000
  H   H51       1.0  0.94031  0.47775  0.08512  1.0000
  O  Te27      1.0  0.00383  0.55176  0.35869  1.0000
  O  Te28      1.0  0.96125  0.56420  0.40240  1.0000
  H   H52       1.0  0.90317  0.48858  0.12316  1.0000
  Mg  Mg14      1.0  0.00088  0.58055  0.46392  1.0000
  C   C93       1.0  0.17767  0.68029  0.18446  1.0000
  C   C94       1.0  0.18562  0.70672  0.23303  1.0000
  C  Sn29      1.0  0.16733  0.71122  0.31175  1.0000
  C  Sn30      1.0  0.14060  0.68881  0.34228  1.0000
  C   C95       1.0  0.13285  0.66245  0.29330  1.0000
  C   C96       1.0  0.15131  0.65818  0.21458  1.0000
  H   H53       1.0  0.19196  0.67698  0.12362  1.0000
  O  Te29      1.0  0.17561  0.73776  0.35941  1.0000
  O  Te30      1.0  0.12191  0.69273  0.42079  1.0000
  H   H54       1.0  0.14515  0.63771  0.17707  1.0000
  Mg  Mg15      1.0  0.14278  0.73271  0.46241  1.0000
  C   C97       1.0  0.84323  0.53966  0.16536  1.0000
  C   C98       1.0  0.81716  0.52215  0.22368  1.0000
  C  Sn31      1.0  0.81230  0.49873  0.31187  1.0000
  C  Sn32      1.0  0.83399  0.49279  0.34209  1.0000
  C   C99       1.0  0.86001  0.51045  0.28332  1.0000
  C   C100      1.0  0.86464  0.53383  0.19516  1.0000
  H   H55       1.0  0.84682  0.55775  0.09722  1.0000
  O  Te31      1.0  0.78613  0.48144  0.36921  1.0000
  O  Te32      1.0  0.82971  0.46953  0.42994  1.0000
  H   H56       1.0  0.88483  0.54739  0.15011  1.0000
  Mg  Mg16      1.0  0.79045  0.45223  0.48280  1.0000
  C   C101      1.0  0.74004  0.49583  0.22164  1.0000
  C   C102      1.0  0.73794  0.51920  0.24444  1.0000
  C  Sn33      1.0  0.76177  0.54501  0.26095  1.0000
  C  Sn34      1.0  0.78814  0.54739  0.25443  1.0000
  C   C103      1.0  0.79001  0.52388  0.23148  1.0000
  C   C104      1.0  0.76604  0.49816  0.21514  1.0000
  H   H57       1.0  0.72149  0.47593  0.20892  1.0000
  O  Te33      1.0  0.75931  0.56815  0.28370  1.0000
  O  Te34      1.0  0.81229  0.57293  0.27053  1.0000
  H   H58       1.0  0.76767  0.48007  0.19740  1.0000
  Mg  Mg17      1.0  0.79823  0.59846  0.29944  1.0000
  C   C105      1.0  0.24598  0.73820  0.25348  1.0000
  C   C106      1.0  0.22025  0.73611  0.26723  1.0000
  C  Sn35      1.0  0.21815  0.75991  0.26907  1.0000
  C  Sn36      1.0  0.24228  0.78626  0.25685  1.0000
  C   C107      1.0  0.26791  0.78813  0.24303  1.0000
  C   C108      1.0  0.26979  0.76418  0.24136  1.0000
  H   H59       1.0  0.24743  0.71967  0.25210  1.0000
  O  Te35      1.0  0.19228  0.75745  0.28295  1.0000
  O  Te36      1.0  0.24076  0.81038  0.25833  1.0000
  H   H60       1.0  0.28971  0.76581  0.23061  1.0000
  Mg  Mg18      1.0  0.20082  0.79634  0.27948  1.0000
  C   C109      1.0  0.56983  0.53516  0.16272  1.0000
  C   C110      1.0  0.54540  0.51643  0.23396  1.0000
  C  Sn37      1.0  0.54424  0.49481  0.32650  1.0000
  C  Sn38      1.0  0.56800  0.49194  0.34794  1.0000
  C   C111      1.0  0.59234  0.51079  0.27625  1.0000
  C   C112      1.0  0.59328  0.53235  0.18385  1.0000
  H   H61       1.0  0.57056  0.55184  0.09129  1.0000
  O  Te37      1.0  0.51966  0.47628  0.39678  1.0000
  O  Te38      1.0  0.56741  0.47053  0.43988  1.0000
  H   H62       1.0  0.61220  0.54685  0.12879  1.0000
  Mg  Mg19      1.0  0.52911  0.45049  0.51132  1.0000
  C   C113      1.0  0.49677  0.55200  0.15335  1.0000
  C   C114      1.0  0.51355  0.54216  0.22052  1.0000
  C  Sn39      1.0  0.53656  0.55919  0.31316  1.0000
  C  Sn40      1.0  0.54283  0.58658  0.33885  1.0000
  C   C115      1.0  0.52590  0.59622  0.27121  1.0000
  C   C116      1.0  0.50293  0.57900  0.17868  1.0000
  H   H63       1.0  0.47898  0.53867  0.08182  1.0000
  O  Te39      1.0  0.55312  0.54903  0.37935  1.0000
  O  Te40      1.0  0.56570  0.60404  0.43099  1.0000
  H   H64       1.0  0.48993  0.58662  0.12676  1.0000
  Mg  Mg20      1.0  0.58202  0.58073  0.49592  1.0000
  C   C117      1.0  0.69551  0.55045  0.36164  1.0000
  C   C118      1.0  0.67085  0.53673  0.27429  1.0000
  C  Sn41      1.0  0.66721  0.51707  0.16980  1.0000
  C  Sn42      1.0  0.68869  0.51109  0.15273  1.0000
  C   C119      1.0  0.71328  0.52492  0.24073  1.0000
  C   C120      1.0  0.71670  0.54455  0.34492  1.0000
  H   H65       1.0  0.69816  0.56563  0.44232  1.0000
  O  Te41      1.0  0.64245  0.50356  0.08339  1.0000
  O  Te42      1.0  0.68560  0.49153  0.04918  1.0000
  H   H66       1.0  0.73579  0.55516  0.41260  1.0000
  Mg  Mg21      1.0  0.65506  0.47379  0.95733  1.0000
  C   C121      1.0  0.48676  0.65985  0.34911  1.0000
  C   C122      1.0  0.50284  0.65131  0.27848  1.0000
  C  Sn43      1.0  0.52597  0.67042  0.19850  1.0000
  C  Sn44      1.0  0.53309  0.69859  0.18929  1.0000
  C   C123      1.0  0.51689  0.70692  0.26044  1.0000
  C   C124      1.0  0.49378  0.68763  0.34014  1.0000
  H   H67       1.0  0.46889  0.64492  0.41085  1.0000
  O  Te43      1.0  0.54180  0.66154  0.12855  1.0000
  O  Te44      1.0  0.55611  0.71812  0.11014  1.0000
  H   H68       1.0  0.48135  0.69425  0.39490  1.0000
  Mg  Mg22      1.0  0.57122  0.69594  0.03381  1.0000
  C   C125      1.0  0.46479  0.04889  0.14839  1.0000
  C   C126      1.0  0.48067  0.07238  0.23531  1.0000
  C  Sn45      1.0  0.50182  0.07405  0.33532  1.0000
  C  Sn46      1.0  0.50712  0.05176  0.34826  1.0000
  C   C127      1.0  0.49113  0.02835  0.26073  1.0000
  C   C128      1.0  0.47001  0.02690  0.16105  1.0000
  H   H69       1.0  0.44846  0.04776  0.07120  1.0000
  O  Te45      1.0  0.51749  0.09767  0.42135  1.0000
  O  Te46      1.0  0.52814  0.05289  0.44729  1.0000
  H   H70       1.0  0.45773  0.00871  0.09369  1.0000
  Mg  Mg23      1.0  0.54384  0.08947  0.54047  1.0000
  C   C129      1.0  0.41731  0.96002  0.34823  1.0000
  C   C130      1.0  0.40599  0.93694  0.25608  1.0000
  C  Sn47      1.0  0.42267  0.93335  0.15823  1.0000
  C  Sn48      1.0  0.45121  0.95327  0.15282  1.0000
  C   C131      1.0  0.46234  0.97628  0.24554  1.0000
  C   C132      1.0  0.44546  0.97968  0.34301  1.0000
  H   H71       1.0  0.40426  0.96264  0.42371  1.0000
  O  Te47      1.0  0.41102  0.91017  0.06690  1.0000
  O  Te48      1.0  0.46835  0.95019  0.05610  1.0000
  H   H72       1.0  0.45423  0.99754  0.41441  1.0000
  Mg  Mg24      1.0  0.44985  0.91032  0.95363  1.0000
  C   C133      1.0  0.49123  0.16214  0.15887  1.0000
  C   C134      1.0  0.47478  0.13837  0.24627  1.0000
  C  Sn49      1.0  0.45441  0.13721  0.33593  1.0000
  C  Sn50      1.0  0.45047  0.16031  0.33786  1.0000
  C   C135      1.0  0.46702  0.18399  0.24994  1.0000
  C   C136      1.0  0.48735  0.18493  0.16067  1.0000
  H   H73       1.0  0.50695  0.16286  0.08974  1.0000
  O  Te49      1.0  0.43816  0.11331  0.42260  1.0000
  O  Te50      1.0  0.43025  0.15971  0.42640  1.0000
  H   H74       1.0  0.50007  0.20333  0.09294  1.0000
  Mg  Mg25      1.0  0.41330  0.12246  0.52500  1.0000
  C   C137      1.0  0.34043  0.82608  0.34065  1.0000
  C   C138      1.0  0.34880  0.85155  0.26568  1.0000
  C  Sn51      1.0  0.32931  0.85692  0.18906  1.0000
  C  Sn52      1.0  0.30093  0.83636  0.18770  1.0000
  C   C139      1.0  0.29275  0.81096  0.26315  1.0000
  C   C140      1.0  0.31243  0.80580  0.33943  1.0000
  H   H75       1.0  0.35565  0.82210  0.39975  1.0000
  O  Te51      1.0  0.33804  0.88247  0.11469  1.0000
  O  Te52      1.0  0.28101  0.84118  0.11205  1.0000
  H   H76       1.0  0.30594  0.78609  0.39755  1.0000
  Mg  Mg26      1.0  0.30311  0.87924  0.02731  1.0000
  C   C141      1.0  0.95223  0.41786  0.14990  1.0000
  C   C142      1.0  0.92930  0.40929  0.23914  1.0000
  C  Sn53      1.0  0.92877  0.42740  0.34070  1.0000
  C  Sn54      1.0  0.95165  0.45459  0.35287  1.0000
  C   C143      1.0  0.97449  0.46297  0.26301  1.0000
  C   C144      1.0  0.97480  0.44468  0.16179  1.0000
  H   H77       1.0  0.95247  0.40372  0.07152  1.0000
  O  Te53      1.0  0.90570  0.41850  0.42905  1.0000
  O  Te54      1.0  0.95166  0.47311  0.45341  1.0000
  H   H78       1.0  0.99255  0.45133  0.09264  1.0000
  Mg  Mg27      1.0  0.91546  0.45132  0.54957  1.0000
  C   C145      1.0  0.04167  0.45539  0.34855  1.0000
  C   C146      1.0  0.06545  0.46943  0.26348  1.0000
  C  Sn55      1.0  0.07013  0.49251  0.17246  1.0000
  C  Sn56      1.0  0.05061  0.50165  0.16677  1.0000
  C   C147      1.0  0.02689  0.48748  0.25239  1.0000
  C   C148      1.0  0.02241  0.46440  0.34305  1.0000
  H   H79       1.0  0.03821  0.43754  0.41877  1.0000
  O  Te55      1.0  0.09399  0.50629  0.08814  1.0000
  O  Te56      1.0  0.05477  0.52466  0.07679  1.0000
  H   H80       1.0  0.00401  0.45355  0.40899  1.0000
  Mg  Mg28      1.0  0.09746  0.53177  0.98249  1.0000
  C   C149      1.0  0.83786  0.33276  0.14650  1.0000
  C   C150      1.0  0.86100  0.33838  0.24104  1.0000
  C  Sn57      1.0  0.86100  0.31764  0.33685  1.0000
  C  Sn58      1.0  0.83738  0.29080  0.33774  1.0000
  C   C151      1.0  0.81435  0.28538  0.24265  1.0000
  C   C152      1.0  0.81456  0.30629  0.14726  1.0000
  H   H81       1.0  0.83803  0.34893  0.07263  1.0000
  O  Te57      1.0  0.88429  0.32361  0.43063  1.0000
  O  Te58      1.0  0.83684  0.26968  0.43234  1.0000
  H   H82       1.0  0.79665  0.30192  0.07400  1.0000
  Mg  Mg29      1.0  0.87360  0.28796  0.53953  1.0000
  C   C153      1.0  0.18847  0.50895  0.35765  1.0000
  C   C154      1.0  0.19145  0.48853  0.29094  1.0000
  C  Sn59      1.0  0.16968  0.46830  0.20338  1.0000
  C  Sn60      1.0  0.14449  0.46857  0.18238  1.0000
  C   C155      1.0  0.14173  0.48910  0.24951  1.0000
  C   C156      1.0  0.16364  0.50924  0.33695  1.0000
  H   H83       1.0  0.20543  0.52455  0.42524  1.0000
  O  Te59      1.0  0.17300  0.44804  0.13759  1.0000
  O  Te60      1.0  0.12241  0.44859  0.09537  1.0000
  H   H84       1.0  0.16133  0.52506  0.38851  1.0000
  Mg  Mg30      1.0  0.13694  0.42524  0.02889  1.0000
  C   C157      1.0  0.43910  0.50806  0.86516  1.0000
  C   C158      1.0  0.41493  0.49269  0.77640  1.0000
  C  Sn61      1.0  0.41274  0.47251  0.68035  1.0000
  C  Sn62      1.0  0.43521  0.46766  0.67331  1.0000
  C   C159      1.0  0.45930  0.48314  0.76265  1.0000
  C   C160      1.0  0.46127  0.50329  0.85833  1.0000
  H   H85       1.0  0.44062  0.52364  0.93925  1.0000
  O  Te61      1.0  0.38844  0.45734  0.59240  1.0000
  O  Te62      1.0  0.43357  0.44761  0.57834  1.0000
  H   H86       1.0  0.47998  0.51518  0.92711  1.0000
  Mg  Mg31      1.0  0.39614  0.43229  0.48045  1.0000
  C   C161      1.0  0.45786  0.42991  0.84110  1.0000
  C   C162      1.0  0.47905  0.45452  0.77970  1.0000
  C  Sn63      1.0  0.49880  0.45417  0.69114  1.0000
  C  Sn64      1.0  0.49724  0.42868  0.66370  1.0000
  C   C163      1.0  0.47595  0.40417  0.72555  1.0000
  C   C164      1.0  0.45630  0.40476  0.81405  1.0000
  H   H87       1.0  0.44265  0.43036  0.90951  1.0000
  O  Te63      1.0  0.51984  0.47895  0.63070  1.0000
  O  Te64      1.0  0.51670  0.42774  0.57555  1.0000
  H   H88       1.0  0.43989  0.38570  0.86149  1.0000
  Mg  Mg32      1.0  0.54149  0.46701  0.51795  1.0000
  C   C165      1.0  0.29328  0.44952  0.87774  1.0000
  C   C166      1.0  0.28811  0.46870  0.79638  1.0000
  C  Sn65      1.0  0.30742  0.48788  0.69557  1.0000
  C  Sn66      1.0  0.33236  0.48779  0.67607  1.0000
  C   C167      1.0  0.33732  0.46851  0.75791  1.0000
  C   C168      1.0  0.31786  0.44942  0.85853  1.0000
  H   H89       1.0  0.27821  0.43474  0.95553  1.0000
  O  Te65      1.0  0.30194  0.50690  0.61523  1.0000
  O  Te66      1.0  0.35201  0.50672  0.57601  1.0000
  H   H90       1.0  0.32186  0.43456  0.92143  1.0000
  Mg  Mg33      1.0  0.33510  0.52858  0.49220  1.0000
  C   C169      1.0  0.46295  0.31899  0.66586  1.0000
  C   C170      1.0  0.48100  0.34073  0.75984  1.0000
  C  Sn67      1.0  0.50147  0.33895  0.85053  1.0000
  C  Sn68      1.0  0.50387  0.31496  0.84680  1.0000
  C   C171      1.0  0.48573  0.29333  0.75232  1.0000
  C   C172      1.0  0.46531  0.29532  0.66207  1.0000
  H   H91       1.0  0.44716  0.32053  0.59596  1.0000
  O  Te67      1.0  0.51932  0.36086  0.94381  1.0000
  O  Te68      1.0  0.52415  0.31265  0.93624  1.0000
  H   H92       1.0  0.45135  0.27850  0.58925  1.0000
  Mg  Mg34      1.0  0.53659  0.35278  0.04483  1.0000
  C   C173      1.0  0.44807  0.21998  0.73812  1.0000
  C   C174      1.0  0.46867  0.21322  0.72319  1.0000
  C  Sn69      1.0  0.49648  0.23386  0.72522  1.0000
  C  Sn70      1.0  0.50374  0.26178  0.74256  1.0000
  C   C175      1.0  0.48298  0.26833  0.75752  1.0000
  C   C176      1.0  0.45522  0.24751  0.75529  1.0000
  H   H93       1.0  0.42660  0.20388  0.73648  1.0000
  O  Te69      1.0  0.51679  0.22674  0.71011  1.0000
  O  Te70      1.0  0.53137  0.28282  0.74503  1.0000
  H   H94       1.0  0.43928  0.25276  0.76694  1.0000
  Mg  Mg35      1.0  0.55157  0.26276  0.72028  1.0000
  C   C177      1.0  0.26266  0.50731  0.73840  1.0000
  C   C178      1.0  0.26441  0.48345  0.76702  1.0000
  C  Sn71      1.0  0.24049  0.45795  0.78910  1.0000
  C  Sn72      1.0  0.21435  0.45637  0.78229  1.0000
  C   C179      1.0  0.21281  0.48036  0.75348  1.0000
  C   C180      1.0  0.23688  0.50578  0.73160  1.0000
  H   H95       1.0  0.28127  0.52697  0.72139  1.0000
  O  Te71      1.0  0.24262  0.43431  0.81764  1.0000
  O  Te72      1.0  0.19012  0.43115  0.80388  1.0000
  H   H96       1.0  0.23551  0.52425  0.70935  1.0000
  Mg  Mg36      1.0  0.20369  0.40472  0.83954  1.0000
  C   C181      1.0  0.49160  0.92859  0.86232  1.0000
  C   C182      1.0  0.50608  0.92173  0.76567  1.0000
  C  Sn73      1.0  0.52607  0.94199  0.67191  1.0000
  C  Sn74      1.0  0.53162  0.96962  0.67525  1.0000
  C   C183      1.0  0.51704  0.97628  0.77242  1.0000
  C   C184      1.0  0.49708  0.95584  0.86573  1.0000
  H   H97       1.0  0.47617  0.91278  0.93458  1.0000
  O  Te73      1.0  0.54033  0.93478  0.57599  1.0000
  O  Te74      1.0  0.55149  0.99028  0.58278  1.0000
  H   H98       1.0  0.48588  0.96116  0.94062  1.0000
  Mg  Mg37      1.0  0.56548  0.97024  0.47133  1.0000
  C   C185      1.0  0.58447  0.04005  0.87267  1.0000
  C   C186      1.0  0.59494  0.06440  0.78357  1.0000
  C  Sn75      1.0  0.57740  0.06920  0.68292  1.0000
  C  Sn76      1.0  0.54885  0.04923  0.67156  1.0000
  C   C187      1.0  0.53857  0.02494  0.76128  1.0000
  C   C188      1.0  0.55631  0.02034  0.86158  1.0000
  H   H99       1.0  0.59819  0.03649  0.95034  1.0000
  O  Te75      1.0  0.58820  0.09363  0.59469  1.0000
  O  Te76      1.0  0.53085  0.05351  0.57195  1.0000
  H   H100      1.0  0.54820  0.00150  0.93063  1.0000
  Mg  Mg38      1.0  0.55540  0.09003  0.47558  1.0000
  C   C189      1.0  0.50457  0.83901  0.64178  1.0000
  C   C190      1.0  0.52074  0.86005  0.74387  1.0000
  C  Sn77      1.0  0.54023  0.85810  0.84294  1.0000
  C  Sn78      1.0  0.54354  0.83464  0.83943  1.0000
  C   C191      1.0  0.52727  0.81371  0.73679  1.0000
  C   C192      1.0  0.50783  0.81586  0.63820  1.0000
  H   H101      1.0  0.48953  0.84068  0.56543  1.0000
  O  Te77      1.0  0.55621  0.87931  0.94426  1.0000
  O  Te78      1.0  0.56287  0.83217  0.93714  1.0000
  H   H102      1.0  0.49532  0.79958  0.55910  1.0000
  Mg  Mg39      1.0  0.57277  0.87128  0.05486  1.0000
  C   C193      1.0  0.66076  0.17686  0.79887  1.0000
  C   C194      1.0  0.65253  0.14947  0.76912  1.0000
  C  Sn79      1.0  0.67204  0.14233  0.73224  1.0000
  C  Sn80      1.0  0.70029  0.16304  0.72513  1.0000
  C   C195      1.0  0.70832  0.19039  0.75518  1.0000
  C   C196      1.0  0.68863  0.19730  0.79194  1.0000
  H   H103      1.0  0.64553  0.18221  0.82739  1.0000
  O  Te79      1.0  0.66346  0.11486  0.70279  1.0000
  O  Te80      1.0  0.72022  0.15648  0.68859  1.0000
  H   H104      1.0  0.69500  0.21851  0.81506  1.0000
  Mg  Mg40      1.0  0.69835  0.11616  0.65782  1.0000
  C   C197      1.0  0.76221  0.21957  0.65451  1.0000
  C   C198      1.0  0.73874  0.21521  0.72706  1.0000
  C  Sn81      1.0  0.73926  0.23657  0.80530  1.0000
  C  Sn82      1.0  0.76376  0.26274  0.81076  1.0000
  C   C199      1.0  0.78712  0.26690  0.73771  1.0000
  C   C200      1.0  0.78638  0.24538  0.65978  1.0000
  H   H105      1.0  0.76163  0.20293  0.59414  1.0000
  O  Te81      1.0  0.71563  0.23186  0.87721  1.0000
  O  Te82      1.0  0.76484  0.28445  0.88810  1.0000
  H   H106      1.0  0.80454  0.24877  0.60353  1.0000
  Mg  Mg41      1.0  0.72731  0.26790  0.96828  1.0000
  C   C201      1.0  0.49157  0.75494  0.69010  1.0000
  C   C202      1.0  0.51454  0.78035  0.72841  1.0000
  C  Sn83      1.0  0.54042  0.78263  0.75688  1.0000
  C  Sn84      1.0  0.54329  0.75900  0.74670  1.0000
  C   C203      1.0  0.52018  0.73368  0.70819  1.0000
  C   C204      1.0  0.49438  0.73163  0.67997  1.0000
  H   H107      1.0  0.47161  0.75336  0.66819  1.0000
  O  Te83      1.0  0.56316  0.80817  0.79507  1.0000
  O  Te84      1.0  0.56892  0.76070  0.77453  1.0000
  H   H108      1.0  0.47660  0.71196  0.65022  1.0000
  Mg  Mg42      1.0  0.59377  0.80005  0.82269  1.0000
  C   C205      1.0  0.03428  0.57087  0.65900  1.0000
  C   C206      1.0  0.02765  0.54556  0.73122  1.0000
  C  Sn85      1.0  0.04707  0.54320  0.82885  1.0000
  C  Sn86      1.0  0.07359  0.56665  0.85446  1.0000
  C   C207      1.0  0.08001  0.59189  0.78175  1.0000
  C   C208      1.0  0.06043  0.59401  0.68425  1.0000
  H   H109      1.0  0.01913  0.57252  0.58363  1.0000
  O  Te85      1.0  0.04011  0.51776  0.90004  1.0000
  O  Te86      1.0  0.09338  0.56488  0.95152  1.0000
  H   H110      1.0  0.06556  0.61362  0.62843  1.0000
  Mg  Mg43      1.0  0.06710  0.53051  0.02222  1.0000
  C   C209      1.0  0.93223  0.50090  0.63737  1.0000
  C   C210      1.0  0.92766  0.51776  0.72914  1.0000
  C  Sn87      1.0  0.94865  0.53599  0.82871  1.0000
  C  Sn88      1.0  0.97468  0.53732  0.83626  1.0000
  C   C211      1.0  0.97905  0.52038  0.74390  1.0000
  C   C212      1.0  0.95790  0.50221  0.64471  1.0000
  H   H111      1.0  0.91587  0.48685  0.56055  1.0000
  O  Te87      1.0  0.94374  0.55268  0.91963  1.0000
  O  Te88      1.0  0.99603  0.55536  0.93473  1.0000
  H   H112      1.0  0.96144  0.48917  0.57360  1.0000
  Mg  Mg44      1.0  0.97229  0.57873  0.03581  1.0000
  C   C213      1.0  0.17665  0.67957  0.66857  1.0000
  C   C214      1.0  0.18505  0.70616  0.71606  1.0000
  C  Sn89      1.0  0.16720  0.71110  0.79621  1.0000
  C  Sn90      1.0  0.14046  0.68896  0.82930  1.0000
  C   C215      1.0  0.13226  0.66242  0.78139  1.0000
  C   C216      1.0  0.15028  0.65771  0.70121  1.0000
  H   H113      1.0  0.19060  0.67592  0.60661  1.0000
  O  Te89      1.0  0.17592  0.73780  0.84276  1.0000
  O  Te90      1.0  0.12221  0.69331  0.90928  1.0000
  H   H114      1.0  0.14378  0.63711  0.66455  1.0000
  Mg  Mg45      1.0  0.14359  0.73337  0.94854  1.0000
  C   C217      1.0  0.82533  0.48577  0.84665  1.0000
  C   C218      1.0  0.85042  0.50253  0.77626  1.0000
  C  Sn91      1.0  0.85555  0.52722  0.70142  1.0000
  C  Sn92      1.0  0.83515  0.53522  0.69720  1.0000
  C   C219      1.0  0.81014  0.51832  0.76807  1.0000
  C   C220      1.0  0.80521  0.49365  0.84259  1.0000
  H   H115      1.0  0.82153  0.46670  0.90439  1.0000
  O  Te91      1.0  0.88072  0.54371  0.63164  1.0000
  O  Te92      1.0  0.83975  0.55979  0.62325  1.0000
  H   H116      1.0  0.78580  0.48069  0.89717  1.0000
  Mg  Mg46      1.0  0.87729  0.57529  0.54499  1.0000
  C   C221      1.0  0.78380  0.54845  0.75523  1.0000
  C   C222      1.0  0.78549  0.52438  0.77056  1.0000
  C  Sn93      1.0  0.76147  0.49851  0.76875  1.0000
  C  Sn94      1.0  0.73528  0.49677  0.75121  1.0000
  C   C223      1.0  0.73381  0.52097  0.73585  1.0000
  C   C224      1.0  0.75798  0.54676  0.73786  1.0000
  H   H117      1.0  0.80250  0.56840  0.75670  1.0000
  O  Te93      1.0  0.76353  0.47467  0.78427  1.0000
  O  Te94      1.0  0.71094  0.47118  0.74895  1.0000
  H   H118      1.0  0.75666  0.56539  0.72589  1.0000
  Mg  Mg47      1.0  0.72446  0.44458  0.77426  1.0000
  C   C225      1.0  0.22137  0.77088  0.72618  1.0000
  C   C226      1.0  0.21414  0.74312  0.72368  1.0000
  C  Sn95      1.0  0.23461  0.73574  0.73508  1.0000
  C  Sn96      1.0  0.26282  0.75658  0.74928  1.0000
  C   C227      1.0  0.26984  0.78430  0.75178  1.0000
  C   C228      1.0  0.24919  0.79145  0.74024  1.0000
  H   H119      1.0  0.20540  0.77642  0.71734  1.0000
  O  Te95      1.0  0.22703  0.70791  0.73234  1.0000
  O  Te96      1.0  0.28370  0.74978  0.76093  1.0000
  H   H120      1.0  0.25480  0.81295  0.74228  1.0000
  Mg  Mg48      1.0  0.26299  0.70899  0.75170  1.0000
  C   C229      1.0  0.54829  0.49078  0.86325  1.0000
  C   C230      1.0  0.54095  0.50922  0.79202  1.0000
  C  Sn97      1.0  0.55904  0.53020  0.69366  1.0000
  C  Sn98      1.0  0.58493  0.53270  0.66628  1.0000
  C   C231      1.0  0.59207  0.51414  0.73801  1.0000
  C   C232      1.0  0.57382  0.49323  0.83626  1.0000
  H   H121      1.0  0.53417  0.47459  0.93921  1.0000
  O  Te97      1.0  0.55138  0.54846  0.62348  1.0000
  O  Te98      1.0  0.60339  0.55347  0.56845  1.0000
  H   H122      1.0  0.57950  0.47894  0.89132  1.0000
  Mg  Mg49      1.0  0.58359  0.57334  0.49966  1.0000
  C   C233      1.0  0.54268  0.56957  0.83742  1.0000
  C   C234      1.0  0.52079  0.54561  0.77452  1.0000
  C  Sn99      1.0  0.49991  0.54685  0.68503  1.0000
  C  Sn100     1.0  0.50104  0.57259  0.65820  1.0000
  C   C235      1.0  0.52303  0.59645  0.72155  1.0000
  C   C236      1.0  0.54381  0.59497  0.81096  1.0000
  H   H123      1.0  0.55876  0.56842  0.90653  1.0000
  O  Te99      1.0  0.47819  0.52271  0.62310  1.0000
  O  Te100     1.0  0.48045  0.57443  0.56915  1.0000
  H   H124      1.0  0.56076  0.61352  0.85956  1.0000
  Mg  Mg50      1.0  0.45505  0.53578  0.50958  1.0000
  C   C237      1.0  0.66601  0.50453  0.67356  1.0000
  C   C238      1.0  0.66225  0.52419  0.74357  1.0000
  C  Sn101     1.0  0.68476  0.54698  0.81192  1.0000
  C  Sn102     1.0  0.71151  0.55010  0.80992  1.0000
  C   C239      1.0  0.71506  0.53034  0.73949  1.0000
  C   C240      1.0  0.69239  0.50761  0.67148  1.0000
  H   H125      1.0  0.64847  0.48695  0.62086  1.0000
  O  Te101     1.0  0.68064  0.56641  0.88142  1.0000
  O  Te102     1.0  0.73437  0.57269  0.87732  1.0000
  H   H126      1.0  0.69531  0.49241  0.61719  1.0000
  Mg  Mg51      1.0  0.71825  0.59365  0.95791  1.0000
  C   C241      1.0  0.53892  0.69780  0.66924  1.0000
  C   C242      1.0  0.51949  0.70508  0.70568  1.0000
  C  Sn103     1.0  0.49517  0.68574  0.77565  1.0000
  C  Sn104     1.0  0.49028  0.65864  0.80968  1.0000
  C   C243      1.0  0.50986  0.65157  0.77287  1.0000
  C   C244      1.0  0.53412  0.67108  0.70282  1.0000
  H   H127      1.0  0.55770  0.71290  0.61512  1.0000
  O  Te103     1.0  0.47597  0.69335  0.81123  1.0000
  O  Te104     1.0  0.46616  0.63891  0.87964  1.0000
  H   H128      1.0  0.54917  0.66545  0.67471  1.0000
  Mg  Mg52      1.0  0.44622  0.65918  0.90591  1.0000
  C   C245      1.0  0.46630  0.04960  0.64835  1.0000
  C   C246      1.0  0.48218  0.07278  0.73751  1.0000
  C  Sn105     1.0  0.50297  0.07391  0.83861  1.0000
  C  Sn106     1.0  0.50790  0.05137  0.85037  1.0000
  C   C247      1.0  0.49192  0.02828  0.76059  1.0000
  C   C248      1.0  0.47116  0.02737  0.65983  1.0000
  H   H129      1.0  0.45026  0.04889  0.57032  1.0000
  O  Te105     1.0  0.51864  0.09722  0.92690  1.0000
  O  Te106     1.0  0.52855  0.05196  0.95045  1.0000
  H   H130      1.0  0.45889  0.00942  0.59074  1.0000
  Mg  Mg53      1.0  0.53740  0.09310  0.04671  1.0000
  C   C249      1.0  0.44852  0.94526  0.66039  1.0000
  C   C250      1.0  0.45843  0.97136  0.72025  1.0000
  C  Sn107     1.0  0.44113  0.97685  0.80201  1.0000
  C  Sn108     1.0  0.41340  0.95576  0.82410  1.0000
  C   C251      1.0  0.40369  0.92971  0.76385  1.0000
  C   C252      1.0  0.42117  0.92445  0.68218  1.0000
  H   H131      1.0  0.46205  0.94118  0.59727  1.0000
  O  Te107     1.0  0.94894  0.00304  0.86100  1.0000
  O  Te108     1.0  0.39567  0.96068  0.90541  1.0000
  H   H132      1.0  0.41349  0.90423  0.63593  1.0000
  Mg  Mg54      1.0  0.91679  0.99970  0.96362  1.0000
  C   C253      1.0  0.44630  0.15447  0.80710  1.0000
  C   C254      1.0  0.46765  0.18015  0.75789  1.0000
  C  Sn109     1.0  0.49060  0.18213  0.69056  1.0000
  C  Sn110     1.0  0.49213  0.15792  0.67227  1.0000
  C   C255      1.0  0.47065  0.13233  0.72179  1.0000
  C   C256      1.0  0.44779  0.13059  0.78906  1.0000
  H   H133      1.0  0.42861  0.15312  0.85908  1.0000
  O  Te109     1.0  0.51175  0.20794  0.64208  1.0000
  O  Te110     1.0  0.51482  0.15931  0.60530  1.0000
  H   H134      1.0  0.43125  0.11071  0.82706  1.0000
  Mg  Mg55      1.0  0.53843  0.19923  0.55752  1.0000
  C   C257      1.0  0.30461  0.84127  0.64524  1.0000
  C   C258      1.0  0.29624  0.81513  0.71126  1.0000
  C  Sn111     1.0  0.31395  0.81103  0.81440  1.0000
  C  Sn112     1.0  0.34051  0.83356  0.85196  1.0000
  C   C259      1.0  0.34868  0.85964  0.78538  1.0000
  C   C260      1.0  0.33080  0.86351  0.68227  1.0000
  H   H135      1.0  0.29078  0.84428  0.56553  1.0000
  O  Te111     1.0  0.30526  0.78477  0.87927  1.0000
  O  Te112     1.0  0.35861  0.83004  0.95475  1.0000
  H   H136      1.0  0.33728  0.88376  0.63125  1.0000
  Mg  Mg56      1.0  0.33033  0.79512  0.01311  1.0000
  C   C261      1.0  0.93001  0.43877  0.85744  1.0000
  C   C262      1.0  0.92235  0.41548  0.77176  1.0000
  C  Sn113     1.0  0.94142  0.41464  0.67973  1.0000
  C  Sn114     1.0  0.96866  0.43756  0.67365  1.0000
  C   C263      1.0  0.97613  0.46075  0.75989  1.0000
  C   C264      1.0  0.95688  0.46138  0.85156  1.0000
  H   H137      1.0  0.91512  0.43925  0.92844  1.0000
  O  Te113     1.0  0.93342  0.39122  0.59481  1.0000
  O  Te114     1.0  0.98814  0.43726  0.58267  1.0000
  H   H138      1.0  0.96282  0.47940  0.91796  1.0000
  Mg  Mg57      1.0  0.96736  0.40064  0.48785  1.0000
  C   C265      1.0  0.06729  0.50326  0.65560  1.0000
  C   C266      1.0  0.07271  0.48464  0.74143  1.0000
  C  Sn115     1.0  0.05263  0.46447  0.83516  1.0000
  C  Sn116     1.0  0.02666  0.46297  0.84283  1.0000
  C   C267      1.0  0.02144  0.48168  0.75643  1.0000
  C   C268      1.0  0.04168  0.50178  0.66306  1.0000
  H   H139      1.0  0.08295  0.51880  0.58328  1.0000
  O  Te115     1.0  0.05839  0.44604  0.92019  1.0000
  O  Te116     1.0  0.00622  0.44301  0.93553  1.0000
  H   H140      1.0  0.03748  0.51618  0.59654  1.0000
  Mg  Mg58      1.0  0.01688  0.42731  0.02981  1.0000
  C   C269      1.0  0.86015  0.30314  0.80283  1.0000
  C   C270      1.0  0.86794  0.32973  0.74584  1.0000
  C  Sn117     1.0  0.84796  0.33596  0.68584  1.0000
  C  Sn118     1.0  0.81966  0.31514  0.68302  1.0000
  C   C271      1.0  0.81208  0.28861  0.74042  1.0000
  C   C272      1.0  0.83224  0.28260  0.80016  1.0000
  H   H141      1.0  0.87575  0.29849  0.84913  1.0000
  O  Te117     1.0  0.85611  0.36263  0.62932  1.0000
  O  Te118     1.0  0.79927  0.32081  0.62375  1.0000
  H   H142      1.0  0.82620  0.26201  0.84436  1.0000
  Mg  Mg59      1.0  0.82066  0.36026  0.56010  1.0000
  C   C273      1.0  0.15794  0.46297  0.70142  1.0000
  C   C274      1.0  0.18538  0.48183  0.74306  1.0000
  C  Sn119     1.0  0.19200  0.50643  0.81225  1.0000
  C  Sn120     1.0  0.17071  0.51217  0.84017  1.0000
  C   C275      1.0  0.14332  0.49315  0.79818  1.0000
  C   C276      1.0  0.13693  0.46861  0.72897  1.0000
  H   H143      1.0  0.15299  0.44397  0.64794  1.0000
  O  Te119     1.0  0.21951  0.52506  0.85308  1.0000
  O  Te120     1.0  0.17674  0.53659  0.90921  1.0000
  H   H144      1.0  0.11568  0.45400  0.69683  1.0000
  Mg  Mg60      1.0  0.21737  0.55551  0.94411  1.0000
