data_image0
_chemical_formula_structural       C7HC6NC7NC7H17C7HNC7NCH9CNC7NC7H10C7HC6NC7NC7H17C7NC7NCH10C7HC6NC7NCH13C7NCNCH6CNCNCH2C7NC7NC7H14C7NC7NCH10C7NCNCH6CNCNCH2C2Sn2C2HTe2HMgC2Sn2C2HTe2HMgC2Sn2C2HTe2HMgC2Sn2C2HTe2HMgC2Sn2C2HTe2HMgC2Sn2C2HTe2HMgC2Sn2C2HTe2HMgC2Sn2C2HTe2HMgC2Sn2C2HTe2HMgC2Sn2C2HTe2HMgC2Sn2C2HTe2HMgC2Sn2C2HTe2HMgC2Sn2C2HTe2HMgC2Sn2C2HTe2HMgC2Sn2C2HTe2HMgC2Sn2C2HTe2HMgC2Sn2C2HTe2HMgC2Sn2C2HTe2HMgC2Sn2C2HTe2HMgC2Sn2C2HTe2HMgC2Sn2C2HTe2HMgC2Sn2C2HTe2HMgC2Sn2C2HTe2HMgC2Sn2C2HTe2HMg
_chemical_formula_sum              "C276 H168 N24 Sn48 Te48 Mg24"
_cell_length_a       47.0439
_cell_length_b       47.2475
_cell_length_c       9.09981
_cell_angle_alpha    94.7739
_cell_angle_beta     68.6447
_cell_angle_gamma    120.082

_symmetry_space_group_name_H-M    'P1'
_space_group_IT_number       1

loop_
  _space_group_symop_operation_xyz
  'x, y, z'

loop_
  _atom_site_type_symbol
  _atom_site_label
  _atom_site_symmetry_multiplicity
  _atom_site_fract_x
  _atom_site_fract_y
  _atom_site_fract_z
  _atom_site_occupancy
  C   C1        1.0  0.49287  0.49776  0.16567  1.0000
  C   C2        1.0  0.45981  0.49831  0.19525  1.0000
  C   C3        1.0  0.43793  0.47822  0.11305  1.0000
  C   C4        1.0  0.40628  0.47668  0.13643  1.0000
  C   C5        1.0  0.39567  0.49635  0.24057  1.0000
  C   C6        1.0  0.41714  0.51635  0.32465  1.0000
  C   C7        1.0  0.44805  0.51673  0.30432  1.0000
  H   H1        1.0  0.46366  0.53226  0.37203  1.0000
  C   C8        1.0  0.48694  0.46367  0.16483  1.0000
  C   C9        1.0  0.45343  0.43686  0.25667  1.0000
  C   C10       1.0  0.44625  0.40451  0.25681  1.0000
  C   C11       1.0  0.47292  0.39747  0.16753  1.0000
  C   C12       1.0  0.50618  0.42379  0.07260  1.0000
  C   C13       1.0  0.51284  0.45592  0.07079  1.0000
  N   N1        1.0  0.36688  0.49905  0.24984  1.0000
  C   C14       1.0  0.33847  0.47347  0.24414  1.0000
  C   C15       1.0  0.31077  0.47636  0.22260  1.0000
  C   C16       1.0  0.27834  0.44808  0.23563  1.0000
  C   C17       1.0  0.25223  0.45077  0.21076  1.0000
  C   C18       1.0  0.25767  0.48170  0.17004  1.0000
  C   C19       1.0  0.29043  0.50990  0.15597  1.0000
  C   C20       1.0  0.31634  0.50734  0.18221  1.0000
  N   N2        1.0  0.46563  0.36494  0.17485  1.0000
  C   C21       1.0  0.48957  0.36009  0.18552  1.0000
  C   C22       1.0  0.48629  0.32785  0.18921  1.0000
  C   C23       1.0  0.50958  0.32421  0.23765  1.0000
  C   C24       1.0  0.50660  0.29366  0.24994  1.0000
  C   C25       1.0  0.48070  0.26573  0.21029  1.0000
  C   C26       1.0  0.45808  0.26974  0.15700  1.0000
  C   C27       1.0  0.46048  0.30012  0.14833  1.0000
  H   H2        1.0  0.44660  0.46419  0.02611  1.0000
  H   H3        1.0  0.39081  0.46209  0.06584  1.0000
  H   H4        1.0  0.40874  0.53099  0.40828  1.0000
  H   H5        1.0  0.43261  0.44177  0.32880  1.0000
  H   H6        1.0  0.42042  0.38436  0.32987  1.0000
  H   H7        1.0  0.52650  0.41851  0.99638  1.0000
  H   H8        1.0  0.53847  0.47534  0.99331  1.0000
  H   H9        1.0  0.33427  0.44847  0.25273  1.0000
  H   H10       1.0  0.27360  0.42395  0.26734  1.0000
  H   H11       1.0  0.22699  0.42870  0.22534  1.0000
  H   H12       1.0  0.29574  0.53397  0.11971  1.0000
  H   H13       1.0  0.34166  0.52906  0.17016  1.0000
  H   H14       1.0  0.51374  0.38057  0.19787  1.0000
  H   H15       1.0  0.52944  0.34548  0.27056  1.0000
  H   H16       1.0  0.52360  0.29107  0.29611  1.0000
  H   H17       1.0  0.43895  0.24884  0.11892  1.0000
  H   H18       1.0  0.44294  0.30313  0.10796  1.0000
  C   C28       1.0  0.51633  0.00637  0.14118  1.0000
  C   C29       1.0  0.51297  0.97327  0.12804  1.0000
  C   C30       1.0  0.54161  0.96996  0.02371  1.0000
  C   C31       1.0  0.54024  0.93976  0.01282  1.0000
  C   C32       1.0  0.50975  0.91109  0.10679  1.0000
  C   C33       1.0  0.48065  0.91377  0.20860  1.0000
  C   C34       1.0  0.48258  0.94411  0.22056  1.0000
  H   H19       1.0  0.46021  0.94533  0.30592  1.0000
  N   N3        1.0  0.50721  0.88020  0.10281  1.0000
  C   C35       1.0  0.53127  0.87768  0.12727  1.0000
  C   C36       1.0  0.53155  0.84690  0.12496  1.0000
  C   C37       1.0  0.55334  0.84419  0.18874  1.0000
  C   C38       1.0  0.55271  0.81463  0.19831  1.0000
  C   C39       1.0  0.53085  0.78683  0.14046  1.0000
  C   C40       1.0  0.50994  0.79008  0.07160  1.0000
  C   C41       1.0  0.50990  0.81933  0.06529  1.0000
  N   N4        1.0  0.65374  0.11302  0.07961  1.0000
  C   C42       1.0  0.65822  0.14237  0.08577  1.0000
  H   H20       1.0  0.56576  0.99177  0.95137  1.0000
  H   H21       1.0  0.56258  0.93798  0.92949  1.0000
  H   H22       1.0  0.45709  0.89184  0.28346  1.0000
  H   H23       1.0  0.55219  0.89877  0.15820  1.0000
  H   H24       1.0  0.56998  0.86530  0.23620  1.0000
  H   H25       1.0  0.56828  0.81266  0.25645  1.0000
  H   H26       1.0  0.49412  0.76945  0.01938  1.0000
  H   H27       1.0  0.49362  0.82154  0.01257  1.0000
  H   H28       1.0  0.63781  0.14728  0.08387  1.0000
  C   C43       1.0  0.00991  0.51864  0.15642  1.0000
  N   N5        1.0  0.13851  0.63302  0.15289  1.0000
  C   C44       1.0  0.13967  0.66090  0.17728  1.0000
  C   C45       1.0  0.17138  0.69123  0.17555  1.0000
  C   C46       1.0  0.16947  0.71988  0.21338  1.0000
  C   C47       1.0  0.19880  0.74907  0.21815  1.0000
  C   C48       1.0  0.23140  0.75097  0.18534  1.0000
  C   C49       1.0  0.23330  0.72224  0.14443  1.0000
  C   C50       1.0  0.20408  0.69305  0.13954  1.0000
  N   N6        1.0  0.89769  0.54061  0.20398  1.0000
  C   C51       1.0  0.86849  0.51635  0.19736  1.0000
  C   C52       1.0  0.84034  0.52024  0.18708  1.0000
  C   C53       1.0  0.80846  0.49191  0.19339  1.0000
  C   C54       1.0  0.78112  0.49437  0.18094  1.0000
  C   C55       1.0  0.78449  0.52528  0.16000  1.0000
  C   C56       1.0  0.81664  0.55361  0.15316  1.0000
  C   C57       1.0  0.84387  0.55124  0.16700  1.0000
  H   H29       1.0  0.11597  0.66290  0.20502  1.0000
  H   H30       1.0  0.14435  0.71881  0.24126  1.0000
  H   H31       1.0  0.19616  0.77051  0.25183  1.0000
  H   H32       1.0  0.25839  0.72317  0.11369  1.0000
  H   H33       1.0  0.20587  0.67112  0.10775  1.0000
  H   H34       1.0  0.86339  0.49091  0.19833  1.0000
  H   H35       1.0  0.80519  0.46773  0.20975  1.0000
  H   H36       1.0  0.75652  0.47202  0.18978  1.0000
  H   H37       1.0  0.82049  0.57786  0.13285  1.0000
  H   H38       1.0  0.86854  0.57323  0.16098  1.0000
  C   C58       1.0  0.52570  0.52582  0.13976  1.0000
  C   C59       1.0  0.55651  0.52308  0.13076  1.0000
  C   C60       1.0  0.58992  0.54044  0.00716  1.0000
  C   C61       1.0  0.61818  0.53707  0.00148  1.0000
  C   C62       1.0  0.61355  0.51523  0.11580  1.0000
  C   C63       1.0  0.58000  0.49733  0.23768  1.0000
  C   C64       1.0  0.55283  0.50249  0.24731  1.0000
  H   H39       1.0  0.52777  0.49052  0.34772  1.0000
  C   C65       1.0  0.53282  0.56004  0.12781  1.0000
  C   C66       1.0  0.55985  0.58552  0.17357  1.0000
  C   C67       1.0  0.56598  0.61755  0.17451  1.0000
  C   C68       1.0  0.54463  0.62564  0.13308  1.0000
  C   C69       1.0  0.51919  0.60101  0.07701  1.0000
  C   C70       1.0  0.51380  0.56932  0.07318  1.0000
  N   N7        1.0  0.64084  0.51033  0.11328  1.0000
  C   C71       1.0  0.66872  0.53479  0.12873  1.0000
  C   C72       1.0  0.69828  0.53210  0.13080  1.0000
  C   C73       1.0  0.72349  0.55739  0.18451  1.0000
  C   C74       1.0  0.75121  0.55522  0.19449  1.0000
  C   C75       1.0  0.75532  0.52788  0.14794  1.0000
  C   C76       1.0  0.73017  0.50281  0.09173  1.0000
  C   C77       1.0  0.70213  0.50466  0.08435  1.0000
  N   N8        1.0  0.55029  0.65771  0.14304  1.0000
  C   C78       1.0  0.52358  0.66173  0.17195  1.0000
  C   C79       1.0  0.52636  0.69383  0.16941  1.0000
  C   C80       1.0  0.49688  0.69515  0.17310  1.0000
  C   C81       1.0  0.49843  0.72514  0.16354  1.0000
  C   C82       1.0  0.52941  0.75512  0.15195  1.0000
  C   C83       1.0  0.55865  0.75355  0.15169  1.0000
  C   C84       1.0  0.55733  0.72365  0.15948  1.0000
  H   H40       1.0  0.59379  0.55678  0.91515  1.0000
  H   H41       1.0  0.64400  0.55082  0.90653  1.0000
  H   H42       1.0  0.57634  0.48094  0.32864  1.0000
  H   H43       1.0  0.57552  0.57961  0.21419  1.0000
  H   H44       1.0  0.58613  0.63637  0.21522  1.0000
  H   H45       1.0  0.50453  0.60722  0.03001  1.0000
  H   H46       1.0  0.49459  0.55139  0.02586  1.0000
  H   H47       1.0  0.67099  0.55906  0.14727  1.0000
  H   H48       1.0  0.72065  0.57861  0.22263  1.0000
  H   H49       1.0  0.76923  0.57450  0.24362  1.0000
  H   H50       1.0  0.73323  0.48189  0.05028  1.0000
  H   H51       1.0  0.68289  0.48515  0.04134  1.0000
  H   H52       1.0  0.49666  0.64050  0.19835  1.0000
  H   H53       1.0  0.47270  0.67223  0.18181  1.0000
  H   H54       1.0  0.47522  0.72543  0.16726  1.0000
  H   H55       1.0  0.58299  0.77633  0.14174  1.0000
  H   H56       1.0  0.58009  0.72265  0.15735  1.0000
  C   C85       1.0  0.48779  0.01142  0.18724  1.0000
  C   C86       1.0  0.45197  0.98358  0.20254  1.0000
  C   C87       1.0  0.42163  0.97405  0.34238  1.0000
  C   C88       1.0  0.38914  0.94645  0.35601  1.0000
  C   C89       1.0  0.38622  0.92680  0.23109  1.0000
  C   C90       1.0  0.41591  0.93724  0.08811  1.0000
  C   C91       1.0  0.44778  0.96557  0.07439  1.0000
  N   N9        1.0  0.49485  0.13610  0.25394  1.0000
  C   C92       1.0  0.46764  0.13931  0.28233  1.0000
  C   C93       1.0  0.47114  0.17143  0.26757  1.0000
  C   C94       1.0  0.44123  0.17358  0.28704  1.0000
  C   C95       1.0  0.44429  0.20398  0.26625  1.0000
  C   C96       1.0  0.47729  0.23335  0.22751  1.0000
  C   C97       1.0  0.50711  0.23096  0.20958  1.0000
  C   C98       1.0  0.50422  0.20072  0.22845  1.0000
  N   N10       1.0  0.35375  0.89844  0.24558  1.0000
  C   C99       1.0  0.35348  0.87118  0.21356  1.0000
  H   H57       1.0  0.42348  0.98782  0.44376  1.0000
  H   H58       1.0  0.36618  0.93880  0.46616  1.0000
  H   H59       1.0  0.41330  0.92340  0.98746  1.0000
  H   H60       1.0  0.47057  0.97416  0.96330  1.0000
  H   H61       1.0  0.44059  0.11794  0.31600  1.0000
  H   H62       1.0  0.41546  0.15111  0.31866  1.0000
  H   H63       1.0  0.42082  0.20517  0.28326  1.0000
  H   H64       1.0  0.53294  0.25328  0.17722  1.0000
  H   H65       1.0  0.52725  0.19881  0.21242  1.0000
  H   H66       1.0  0.37707  0.86931  0.19128  1.0000
  C   C100      1.0  0.00511  0.48707  0.14590  1.0000
  C   C101      1.0  0.97036  0.45655  0.17290  1.0000
  C   C102      1.0  0.96940  0.42888  0.09768  1.0000
  C   C103      1.0  0.93771  0.39991  0.11545  1.0000
  C   C104      1.0  0.90499  0.39716  0.21065  1.0000
  C   C105      1.0  0.90551  0.42433  0.28923  1.0000
  C   C106      1.0  0.93728  0.45285  0.27262  1.0000
  H   H67       1.0  0.93650  0.47317  0.33469  1.0000
  C   C107      1.0  0.03497  0.48100  0.11210  1.0000
  C   C108      1.0  0.02980  0.45546  0.20682  1.0000
  C   C109      1.0  0.05699  0.44998  0.19219  1.0000
  C   C110      1.0  0.09139  0.47102  0.08289  1.0000
  C   C111      1.0  0.09663  0.49533  0.97993  1.0000
  C   C112      1.0  0.06873  0.49977  0.99265  1.0000
  N   N11       1.0  0.87267  0.36981  0.21990  1.0000
  C   C113      1.0  0.86696  0.34032  0.23806  1.0000
  C   C114      1.0  0.83573  0.31144  0.22457  1.0000
  C   C115      1.0  0.82698  0.27949  0.27068  1.0000
  C   C116      1.0  0.79753  0.25186  0.25524  1.0000
  C   C117      1.0  0.77628  0.25504  0.18905  1.0000
  C   C118      1.0  0.78528  0.28727  0.14373  1.0000
  C   C119      1.0  0.81412  0.31484  0.16202  1.0000
  N   N12       1.0  0.11864  0.46661  0.08323  1.0000
  C   C120      1.0  0.14666  0.49191  0.09336  1.0000
  H   H68       1.0  0.99422  0.43053  0.02152  1.0000
  H   H69       1.0  0.93798  0.37969  0.04957  1.0000
  H   H70       1.0  0.88050  0.42247  0.36497  1.0000
  H   H71       1.0  0.00357  0.43994  0.29524  1.0000
  H   H72       1.0  0.05265  0.43079  0.27018  1.0000
  H   H73       1.0  0.12282  0.51049  0.88958  1.0000
  H   H74       1.0  0.07358  0.51883  0.91232  1.0000
  H   H75       1.0  0.88561  0.33584  0.26368  1.0000
  H   H76       1.0  0.84296  0.27636  0.32213  1.0000
  H   H77       1.0  0.79054  0.22749  0.29716  1.0000
  H   H78       1.0  0.77027  0.29066  0.08712  1.0000
  H   H79       1.0  0.82130  0.33954  0.12385  1.0000
  H   H80       1.0  0.14896  0.51630  0.10390  1.0000
  C   C121      1.0  0.47381  0.47424  0.67391  1.0000
  C   C122      1.0  0.46752  0.43999  0.67158  1.0000
  C   C123      1.0  0.44158  0.41619  0.80406  1.0000
  C   C124      1.0  0.43601  0.38441  0.81114  1.0000
  C   C125      1.0  0.45680  0.37539  0.68474  1.0000
  C   C126      1.0  0.48161  0.39847  0.54900  1.0000
  C   C127      1.0  0.48652  0.43001  0.54214  1.0000
  N   N13       1.0  0.35681  0.48736  0.71552  1.0000
  C   C128      1.0  0.32535  0.46310  0.73658  1.0000
  N   N14       1.0  0.45147  0.34347  0.69458  1.0000
  C   C129      1.0  0.47833  0.34058  0.67702  1.0000
  H   H81       1.0  0.42582  0.42298  0.90438  1.0000
  H   H82       1.0  0.41652  0.36664  0.91607  1.0000
  H   H83       1.0  0.49648  0.39113  0.44766  1.0000
  H   H84       1.0  0.50558  0.44694  0.43430  1.0000
  H   H85       1.0  0.31717  0.43776  0.77449  1.0000
  H   H86       1.0  0.50411  0.36235  0.66502  1.0000
  C   C130      1.0  0.51422  0.99151  0.64666  1.0000
  N   N15       1.0  0.50527  0.86591  0.64332  1.0000
  C   C131      1.0  0.53079  0.86152  0.63323  1.0000
  N   N16       1.0  0.64803  0.10452  0.58780  1.0000
  C   C132      1.0  0.65129  0.13344  0.59519  1.0000
  H   H87       1.0  0.55593  0.88188  0.63743  1.0000
  H   H88       1.0  0.63002  0.13747  0.59760  1.0000
  C   C133      1.0  0.99539  0.51101  0.66643  1.0000
  C   C134      1.0  0.96641  0.51580  0.67002  1.0000
  C   C135      1.0  0.96249  0.54196  0.74215  1.0000
  C   C136      1.0  0.93527  0.54666  0.74744  1.0000
  C   C137      1.0  0.91018  0.52476  0.68332  1.0000
  C   C138      1.0  0.91432  0.49903  0.60756  1.0000
  C   C139      1.0  0.94217  0.49520  0.59911  1.0000
  N   N17       1.0  0.12286  0.62792  0.64350  1.0000
  C   C140      1.0  0.12660  0.65681  0.63266  1.0000
  C   C141      1.0  0.15850  0.68660  0.63263  1.0000
  C   C142      1.0  0.16065  0.71734  0.62947  1.0000
  C   C143      1.0  0.18997  0.74589  0.63954  1.0000
  C   C144      1.0  0.21802  0.74455  0.65427  1.0000
  C   C145      1.0  0.21614  0.71373  0.65272  1.0000
  C   C146      1.0  0.18707  0.68530  0.64210  1.0000
  N   N18       1.0  0.88398  0.53079  0.68476  1.0000
  C   C147      1.0  0.85287  0.50618  0.70333  1.0000
  C   C148      1.0  0.82596  0.51056  0.68354  1.0000
  C   C149      1.0  0.79212  0.48306  0.71048  1.0000
  C   C150      1.0  0.76629  0.48663  0.68840  1.0000
  C   C151      1.0  0.77346  0.51780  0.63932  1.0000
  C   C152      1.0  0.80751  0.54524  0.61207  1.0000
  C   C153      1.0  0.83335  0.54173  0.63318  1.0000
  H   H89       1.0  0.98071  0.55838  0.79800  1.0000
  H   H90       1.0  0.93225  0.56656  0.80580  1.0000
  H   H91       1.0  0.89674  0.48349  0.54686  1.0000
  H   H92       1.0  0.94577  0.47611  0.53499  1.0000
  H   H93       1.0  0.10530  0.66017  0.62938  1.0000
  H   H94       1.0  0.13869  0.71847  0.62155  1.0000
  H   H95       1.0  0.19083  0.76936  0.64125  1.0000
  H   H96       1.0  0.23816  0.71254  0.65912  1.0000
  H   H97       1.0  0.18542  0.66151  0.64269  1.0000
  H   H98       1.0  0.84536  0.48065  0.73378  1.0000
  H   H99       1.0  0.78631  0.45897  0.75020  1.0000
  H   H100      1.0  0.73996  0.46539  0.71230  1.0000
  H   H101      1.0  0.81362  0.56926  0.56971  1.0000
  H   H102      1.0  0.85988  0.56262  0.60971  1.0000
  C   C154      1.0  0.50691  0.50157  0.65041  1.0000
  C   C155      1.0  0.51360  0.53559  0.63238  1.0000
  C   C156      1.0  0.53384  0.56068  0.70716  1.0000
  C   C157      1.0  0.54028  0.59253  0.68896  1.0000
  C   C158      1.0  0.52503  0.60005  0.60212  1.0000
  C   C159      1.0  0.50583  0.57539  0.52197  1.0000
  C   C160      1.0  0.50130  0.54420  0.53439  1.0000
  N   N19       1.0  0.63107  0.50050  0.60158  1.0000
  C   C161      1.0  0.65843  0.52690  0.61063  1.0000
  C   C162      1.0  0.68926  0.52604  0.60509  1.0000
  C   C163      1.0  0.71580  0.55238  0.64788  1.0000
  C   C164      1.0  0.74348  0.55001  0.65686  1.0000
  C   C165      1.0  0.74564  0.52142  0.62096  1.0000
  C   C166      1.0  0.71967  0.49569  0.57170  1.0000
  C   C167      1.0  0.69192  0.49782  0.56454  1.0000
  N   N20       1.0  0.53106  0.63215  0.59664  1.0000
  C   C168      1.0  0.50629  0.63691  0.59675  1.0000
  H   H103      1.0  0.54469  0.55512  0.78014  1.0000
  H   H104      1.0  0.55610  0.61187  0.74612  1.0000
  H   H105      1.0  0.49641  0.58148  0.44331  1.0000
  H   H106      1.0  0.48802  0.52552  0.46757  1.0000
  H   H107      1.0  0.65879  0.55036  0.63073  1.0000
  H   H108      1.0  0.71406  0.57438  0.67864  1.0000
  H   H109      1.0  0.76298  0.56985  0.69741  1.0000
  H   H110      1.0  0.72198  0.47413  0.53664  1.0000
  H   H111      1.0  0.67153  0.47800  0.52856  1.0000
  H   H112      1.0  0.48005  0.61620  0.60648  1.0000
  C   C169      1.0  0.48410  0.99338  0.67600  1.0000
  C   C170      1.0  0.44949  0.96484  0.68385  1.0000
  C   C171      1.0  0.41770  0.96487  0.77149  1.0000
  C   C172      1.0  0.38499  0.93964  0.77400  1.0000
  C   C173      1.0  0.38220  0.91203  0.69513  1.0000
  C   C174      1.0  0.41346  0.91125  0.61006  1.0000
  C   C175      1.0  0.44622  0.93731  0.60243  1.0000
  N   N21       1.0  0.49073  0.11811  0.73611  1.0000
  C   C176      1.0  0.46497  0.12187  0.74141  1.0000
  N   N22       1.0  0.34942  0.88731  0.69348  1.0000
  C   C177      1.0  0.33919  0.85697  0.73002  1.0000
  H   H113      1.0  0.41876  0.98513  0.83962  1.0000
  H   H114      1.0  0.36102  0.94044  0.84083  1.0000
  H   H115      1.0  0.41190  0.89063  0.54359  1.0000
  H   H116      1.0  0.46978  0.93636  0.53084  1.0000
  H   H117      1.0  0.43876  0.10050  0.75581  1.0000
  H   H118      1.0  0.35407  0.85064  0.77707  1.0000
  C   C178      1.0  0.99212  0.48014  0.66845  1.0000
  N   N23       1.0  0.85919  0.36381  0.75220  1.0000
  C   C179      1.0  0.85646  0.33517  0.74849  1.0000
  N   N24       1.0  0.10743  0.46083  0.58342  1.0000
  C   C180      1.0  0.13599  0.48614  0.58955  1.0000
  H   H119      1.0  0.87722  0.33190  0.75901  1.0000
  H   H120      1.0  0.13844  0.51056  0.60127  1.0000
  C   C181      1.0  0.72467  0.17137  0.13030  1.0000
  C   C182      1.0  0.69432  0.16849  0.12123  1.0000
  C  Sn1       1.0  0.69063  0.19614  0.12554  1.0000
  C  Sn2       1.0  0.71788  0.22722  0.13914  1.0000
  C   C183      1.0  0.74815  0.22985  0.14802  1.0000
  C   C184      1.0  0.75156  0.20202  0.14365  1.0000
  H   H121      1.0  0.72732  0.14984  0.12683  1.0000
  O  Te1       1.0  0.66013  0.19283  0.11641  1.0000
  O  Te2       1.0  0.71488  0.25526  0.14366  1.0000
  H   H122      1.0  0.77507  0.20426  0.15057  1.0000
  Mg  Mg1       1.0  0.66830  0.23822  0.12743  1.0000
  C   C185      1.0  0.56776  0.06072  0.52422  1.0000
  C   C186      1.0  0.55345  0.02814  0.58413  1.0000
  C  Sn3       1.0  0.57126  0.02012  0.65147  1.0000
  C  Sn4       1.0  0.60399  0.04522  0.65884  1.0000
  C   C187      1.0  0.61807  0.07774  0.59868  1.0000
  C   C188      1.0  0.60003  0.08550  0.53151  1.0000
  H   H123      1.0  0.55380  0.06673  0.47232  1.0000
  O  Te3       1.0  0.55660  0.98744  0.71070  1.0000
  O  Te4       1.0  0.62233  0.03789  0.72557  1.0000
  H   H124      1.0  0.61111  0.11073  0.48523  1.0000
  Mg  Mg2       1.0  0.59158  0.98972  0.79033  1.0000
  C   C189      1.0  0.04632  0.57990  0.55588  1.0000
  C   C190      1.0  0.03175  0.54836  0.63007  1.0000
  C  Sn5       1.0  0.04719  0.54308  0.72220  1.0000
  C  Sn6       1.0  0.07777  0.56993  0.74022  1.0000
  C   C191      1.0  0.09212  0.60140  0.66561  1.0000
  C   C192      1.0  0.07647  0.60640  0.57364  1.0000
  H   H125      1.0  0.03420  0.58377  0.48479  1.0000
  O  Te5       1.0  0.03231  0.51141  0.79545  1.0000
  O  Te6       1.0  0.09372  0.56536  0.83168  1.0000
  H   H126      1.0  0.08773  0.63082  0.51630  1.0000
  Mg  Mg3       1.0  0.06363  0.51760  0.90798  1.0000
  C   C193      1.0  0.28416  0.82945  0.60283  1.0000
  C   C194      1.0  0.30216  0.83153  0.69984  1.0000
  C  Sn7       1.0  0.29337  0.80308  0.78433  1.0000
  C  Sn8       1.0  0.26604  0.77201  0.77118  1.0000
  C   C195      1.0  0.24820  0.77019  0.67372  1.0000
  C   C196      1.0  0.25721  0.79881  0.58975  1.0000
  H   H127      1.0  0.29113  0.85160  0.53778  1.0000
  O  Te7       1.0  0.31161  0.80560  0.88076  1.0000
  O  Te8       1.0  0.25672  0.74318  0.85426  1.0000
  H   H128      1.0  0.24328  0.79719  0.51457  1.0000
  Mg  Mg4       1.0  0.28928  0.75931  0.97047  1.0000
  C   C197      1.0  0.93293  0.40140  0.59577  1.0000
  C   C198      1.0  0.89955  0.39071  0.71492  1.0000
  C  Sn9       1.0  0.89478  0.41049  0.83336  1.0000
  C  Sn10      1.0  0.92402  0.44154  0.83215  1.0000
  C   C199      1.0  0.95730  0.45203  0.71237  1.0000
  C   C200      1.0  0.96178  0.43203  0.59445  1.0000
  H   H129      1.0  0.93640  0.38594  0.50448  1.0000
  O  Te9       1.0  0.86125  0.39943  0.95156  1.0000
  O  Te10      1.0  0.91998  0.46181  0.94906  1.0000
  H   H130      1.0  0.98763  0.44032  0.50216  1.0000
  Mg  Mg5       1.0  0.95238  0.46144  0.08514  1.0000
  C   C201      1.0  0.71955  0.16482  0.62308  1.0000
  C   C202      1.0  0.68786  0.16064  0.62450  1.0000
  C  Sn11      1.0  0.68241  0.18738  0.63836  1.0000
  C  Sn12      1.0  0.70925  0.21886  0.65095  1.0000
  C   C203      1.0  0.74086  0.22278  0.64929  1.0000
  C   C204      1.0  0.74603  0.19586  0.63543  1.0000
  H   H131      1.0  0.72356  0.14399  0.61226  1.0000
  O  Te11      1.0  0.65059  0.18277  0.63965  1.0000
  O  Te12      1.0  0.70450  0.24600  0.66487  1.0000
  H   H132      1.0  0.77058  0.19910  0.63422  1.0000
  Mg  Mg6       1.0  0.65658  0.22731  0.66102  1.0000
  C   C205      1.0  0.47767  0.67834  0.61497  1.0000
  C   C206      1.0  0.50374  0.67001  0.58413  1.0000
  C  Sn13      1.0  0.53839  0.69437  0.56403  1.0000
  C  Sn14      1.0  0.54701  0.72767  0.57511  1.0000
  C   C207      1.0  0.52073  0.73574  0.60612  1.0000
  C   C208      1.0  0.48615  0.71117  0.62598  1.0000
  H   H133      1.0  0.45091  0.65933  0.63043  1.0000
  O  Te13      1.0  0.56412  0.68562  0.53323  1.0000
  O  Te14      1.0  0.58143  0.75250  0.55558  1.0000
  H   H134      1.0  0.46597  0.71763  0.64996  1.0000
  Mg  Mg7       1.0  0.60726  0.72829  0.51550  1.0000
  C   C209      1.0  0.22426  0.51879  0.16964  1.0000
  C   C210      1.0  0.22903  0.49168  0.15985  1.0000
  C  Sn15      1.0  0.20713  0.46285  0.11010  1.0000
  C  Sn16      1.0  0.17999  0.46120  0.06943  1.0000
  C   C211      1.0  0.17545  0.48846  0.07950  1.0000
  C   C212      1.0  0.19750  0.51718  0.12948  1.0000
  H   H135      1.0  0.24133  0.54102  0.20822  1.0000
  O  Te15      1.0  0.21225  0.43599  0.10106  1.0000
  O  Te16      1.0  0.15774  0.43269  0.01928  1.0000
  H   H136      1.0  0.19382  0.53817  0.13695  1.0000
  Mg  Mg8       1.0  0.17517  0.40259  0.02627  1.0000
  C   C213      1.0  0.95314  0.50736  0.06229  1.0000
  C   C214      1.0  0.97850  0.52338  0.13135  1.0000
  C  Sn17      1.0  0.97578  0.54510  0.24216  1.0000
  C  Sn18      1.0  0.94710  0.55084  0.28441  1.0000
  C   C215      1.0  0.92185  0.53468  0.21474  1.0000
  C   C216      1.0  0.92484  0.51300  0.10395  1.0000
  H   H137      1.0  0.87213  0.46503  0.97664  1.0000
  O  Te17      1.0  0.00136  0.56090  0.30996  1.0000
  O  Te18      1.0  0.94374  0.57242  0.39487  1.0000
  H   H138      1.0  0.90518  0.50059  0.05058  1.0000
  Mg  Mg9       1.0  0.98529  0.58811  0.45461  1.0000
  C   C217      1.0  0.43303  0.16035  0.75916  1.0000
  C   C218      1.0  0.46033  0.15361  0.72566  1.0000
  C  Sn19      1.0  0.49531  0.17938  0.68559  1.0000
  C  Sn20      1.0  0.50302  0.21249  0.67907  1.0000
  C   C219      1.0  0.47551  0.21897  0.71291  1.0000
  C   C220      1.0  0.44060  0.19300  0.75283  1.0000
  H   H139      1.0  0.40601  0.14025  0.79013  1.0000
  O  Te19      1.0  0.52228  0.17221  0.65241  1.0000
  O  Te20      1.0  0.53775  0.23872  0.63941  1.0000
  H   H140      1.0  0.41947  0.19822  0.77886  1.0000
  Mg  Mg10      1.0  0.56539  0.21639  0.60409  1.0000
  C   C221      1.0  0.81423  0.26525  0.77393  1.0000
  C   C222      1.0  0.82767  0.29828  0.72528  1.0000
  C  Sn21      1.0  0.80978  0.30694  0.66154  1.0000
  C  Sn22      1.0  0.77785  0.28202  0.64641  1.0000
  C   C223      1.0  0.76460  0.24905  0.69554  1.0000
  C   C224      1.0  0.78272  0.24065  0.75911  1.0000
  H   H141      1.0  0.82823  0.25876  0.82321  1.0000
  O  Te21      1.0  0.82359  0.34006  0.61347  1.0000
  O  Te22      1.0  0.75942  0.28998  0.58316  1.0000
  H   H142      1.0  0.77229  0.21508  0.79687  1.0000
  Mg  Mg11      1.0  0.78887  0.33858  0.53444  1.0000
  C   C225      1.0  0.60020  0.04828  0.17892  1.0000
  C   C226      1.0  0.62062  0.07824  0.08025  1.0000
  C  Sn23      1.0  0.52303  0.06121  0.99326  1.0000
  C  Sn24      1.0  0.57093  0.06482  0.00556  1.0000
  C   C227      1.0  0.55071  0.03492  0.10469  1.0000
  C   C228      1.0  0.56528  0.02664  0.19117  1.0000
  H   H143      1.0  0.61146  0.04188  0.24591  1.0000
  O  Te23      1.0  0.54381  0.09123  0.89519  1.0000
  O  Te24      1.0  0.47269  0.04718  0.91998  1.0000
  H   H144      1.0  0.54945  0.00345  0.26764  1.0000
  Mg  Mg12      1.0  0.51159  0.09095  0.80225  1.0000
  C   C229      1.0  0.54067  0.93206  0.50483  1.0000
  C   C230      1.0  0.51862  0.90446  0.61990  1.0000
  C  Sn25      1.0  0.49177  0.90390  0.75523  1.0000
  C  Sn26      1.0  0.48696  0.93152  0.77538  1.0000
  C   C231      1.0  0.50915  0.95900  0.65952  1.0000
  C   C232      1.0  0.53594  0.95930  0.52458  1.0000
  H   H145      1.0  0.56139  0.93229  0.40038  1.0000
  O  Te25      1.0  0.46998  0.87614  0.86906  1.0000
  O  Te26      1.0  0.46033  0.93162  0.90947  1.0000
  H   H146      1.0  0.55299  0.98067  0.43546  1.0000
  Mg  Mg13      1.0  0.52069  0.91356  0.03145  1.0000
  C   C233      1.0  0.58252  0.53228  0.54133  1.0000
  C   C234      1.0  0.54733  0.50666  0.60603  1.0000
  C  Sn27      1.0  0.53887  0.47756  0.68335  1.0000
  C  Sn28      1.0  0.56621  0.47413  0.69599  1.0000
  C   C235      1.0  0.60133  0.49992  0.63097  1.0000
  C   C236      1.0  0.60950  0.52893  0.55380  1.0000
  H   H147      1.0  0.58885  0.55473  0.48170  1.0000
  O  Te27      1.0  0.50357  0.45220  0.74727  1.0000
  O  Te28      1.0  0.55850  0.44532  0.77270  1.0000
  H   H148      1.0  0.63675  0.54877  0.50381  1.0000
  Mg  Mg14      1.0  0.50637  0.41769  0.84059  1.0000
  C   C237      1.0  0.49473  0.79389  0.57793  1.0000
  C   C238      1.0  0.51805  0.82193  0.62652  1.0000
  C  Sn29      1.0  0.54526  0.82242  0.65756  1.0000
  C  Sn30      1.0  0.54914  0.79428  0.63947  1.0000
  C   C239      1.0  0.52568  0.76635  0.59069  1.0000
  C   C240      1.0  0.49854  0.76613  0.55999  1.0000
  H   H149      1.0  0.47374  0.79372  0.55409  1.0000
  O  Te29      1.0  0.56831  0.85063  0.70607  1.0000
  O  Te30      1.0  0.57611  0.79410  0.66964  1.0000
  H   H150      1.0  0.48050  0.74443  0.52227  1.0000
  Mg  Mg15      1.0  0.60089  0.83844  0.73301  1.0000
  C   C241      1.0  0.44599  0.27129  0.63863  1.0000
  C   C242      1.0  0.46756  0.30129  0.68219  1.0000
  C  Sn31      1.0  0.49478  0.30504  0.72534  1.0000
  C  Sn32      1.0  0.50045  0.27822  0.72470  1.0000
  C   C243      1.0  0.47874  0.24832  0.68083  1.0000
  C   C244      1.0  0.45158  0.24483  0.63791  1.0000
  H   H151      1.0  0.42499  0.26860  0.60534  1.0000
  O  Te31      1.0  0.51607  0.33517  0.76860  1.0000
  O  Te32      1.0  0.52746  0.28130  0.76724  1.0000
  H   H152      1.0  0.43490  0.22162  0.60409  1.0000
  Mg  Mg16      1.0  0.54947  0.32727  0.81716  1.0000
  C   C245      1.0  0.08203  0.49753  0.49327  1.0000
  C   C246      1.0  0.08246  0.47314  0.56790  1.0000
  C  Sn33      1.0  0.05097  0.44749  0.67436  1.0000
  C  Sn34      1.0  0.01851  0.44630  0.70644  1.0000
  C   C247      1.0  0.01836  0.47081  0.63108  1.0000
  C   C248      1.0  0.05002  0.49637  0.52479  1.0000
  H   H153      1.0  0.10652  0.51730  0.41096  1.0000
  O  Te33      1.0  0.05187  0.42333  0.74794  1.0000
  O  Te34      1.0  0.98665  0.42093  0.81228  1.0000
  H   H154      1.0  0.04968  0.51524  0.46694  1.0000
  Mg  Mg17      1.0  0.00151  0.39373  0.88303  1.0000
  C   C249      1.0  0.51864  0.09462  0.28925  1.0000
  C   C250      1.0  0.49936  0.10500  0.24625  1.0000
  C  Sn35      1.0  0.47248  0.08293  0.19361  1.0000
  C  Sn36      1.0  0.46481  0.04987  0.18402  1.0000
  C   C251      1.0  0.48424  0.03973  0.22742  1.0000
  C   C252      1.0  0.51109  0.06202  0.27988  1.0000
  H   H155      1.0  0.53940  0.11186  0.32992  1.0000
  O  Te35      1.0  0.45348  0.09371  0.15106  1.0000
  O  Te36      1.0  0.43808  0.02730  0.13187  1.0000
  H   H156      1.0  0.52600  0.05397  0.31326  1.0000
  Mg  Mg18      1.0  0.41956  0.05374  0.08712  1.0000
  C   C253      1.0  0.46442  0.03907  0.61981  1.0000
  C   C254      1.0  0.48113  0.02739  0.67564  1.0000
  C  Sn37      1.0  0.49991  0.04560  0.77133  1.0000
  C  Sn38      1.0  0.50193  0.07604  0.81172  1.0000
  C   C255      1.0  0.48510  0.08750  0.75535  1.0000
  C   C256      1.0  0.46639  0.06909  0.65963  1.0000
  H   H157      1.0  0.44993  0.02482  0.54582  1.0000
  O  Te37      1.0  0.51646  0.03358  0.82605  1.0000
  O  Te38      1.0  0.52051  0.09473  0.90721  1.0000
  H   H158      1.0  0.45344  0.07812  0.61651  1.0000
  Mg  Mg19      1.0  0.53864  0.06798  0.95274  1.0000
  C   C257      1.0  0.05903  0.58874  0.08555  1.0000
  C   C258      1.0  0.04600  0.55586  0.13505  1.0000
  C  Sn39      1.0  0.06373  0.54779  0.20272  1.0000
  C  Sn40      1.0  0.09507  0.57317  0.22107  1.0000
  C   C259      1.0  0.10787  0.60599  0.17127  1.0000
  C   C260      1.0  0.08993  0.61378  0.10366  1.0000
  H   H159      1.0  0.04514  0.59477  0.03332  1.0000
  O  Te39      1.0  0.05035  0.51481  0.25148  1.0000
  O  Te40      1.0  0.11331  0.56579  0.28838  1.0000
  H   H160      1.0  0.10001  0.63925  0.06544  1.0000
  Mg  Mg20      1.0  0.08462  0.51717  0.33645  1.0000
  C   C261      1.0  0.21503  0.51298  0.65284  1.0000
  C   C262      1.0  0.21869  0.48530  0.64819  1.0000
  C  Sn41      1.0  0.19560  0.45612  0.60521  1.0000
  C  Sn42      1.0  0.16837  0.45470  0.56618  1.0000
  C   C263      1.0  0.16494  0.48254  0.57108  1.0000
  C   C264      1.0  0.18819  0.51161  0.61430  1.0000
  H   H161      1.0  0.23302  0.53548  0.68619  1.0000
  O  Te41      1.0  0.19963  0.42870  0.60123  1.0000
  O  Te42      1.0  0.14493  0.42586  0.52276  1.0000
  H   H162      1.0  0.18536  0.53304  0.61778  1.0000
  Mg  Mg21      1.0  0.16114  0.39501  0.53485  1.0000
  C   C265      1.0  0.41461  0.50638  0.80133  1.0000
  C   C266      1.0  0.38964  0.48850  0.73171  1.0000
  C  Sn43      1.0  0.38959  0.46199  0.65115  1.0000
  C  Sn44      1.0  0.41502  0.45327  0.64032  1.0000
  C   C267      1.0  0.43988  0.47130  0.71047  1.0000
  C   C268      1.0  0.43970  0.49779  0.79076  1.0000
  H   H163      1.0  0.41447  0.52687  0.86353  1.0000
  O  Te43      1.0  0.36446  0.44439  0.58223  1.0000
  O  Te44      1.0  0.41556  0.42687  0.56055  1.0000
  H   H164      1.0  0.45902  0.51162  0.84474  1.0000
  Mg  Mg22      1.0  0.37591  0.41041  0.48609  1.0000
  C   C269      1.0  0.26964  0.82183  0.17933  1.0000
  C   C270      1.0  0.26362  0.78970  0.17844  1.0000
  C  Sn45      1.0  0.28729  0.78274  0.20236  1.0000
  C  Sn46      1.0  0.31754  0.80847  0.22765  1.0000
  C   C271      1.0  0.32332  0.84052  0.22844  1.0000
  C   C272      1.0  0.29946  0.84722  0.20433  1.0000
  H   H165      1.0  0.25118  0.82700  0.16077  1.0000
  O  Te45      1.0  0.28088  0.75050  0.20105  1.0000
  O  Te46      1.0  0.34162  0.80219  0.25193  1.0000
  H   H166      1.0  0.30412  0.87209  0.20513  1.0000
  Mg  Mg23      1.0  0.32139  0.75427  0.23961  1.0000
  C   C273      1.0  0.29071  0.50528  0.62042  1.0000
  C   C274      1.0  0.25580  0.48139  0.64208  1.0000
  C  Sn47      1.0  0.24131  0.44932  0.70960  1.0000
  C  Sn48      1.0  0.26222  0.44110  0.75622  1.0000
  C   C275      1.0  0.29711  0.46519  0.73416  1.0000
  C   C276      1.0  0.31134  0.49719  0.66643  1.0000
  H   H167      1.0  0.30172  0.53005  0.56810  1.0000
  O  Te47      1.0  0.20639  0.42575  0.73033  1.0000
  O  Te48      1.0  0.24840  0.40925  0.82405  1.0000
  H   H168      1.0  0.33837  0.51569  0.64977  1.0000
  Mg  Mg24      1.0  0.19945  0.38571  0.82794  1.0000
