data_image0
_chemical_formula_structural       C3H2N2C3H2N2C3H2N2C3H2N2C3H2N2C3H2N2C3H2N2C3H2N2C3H2N2C3H2N2C3H2N2C3H2N2SnCSn2CSnTe4Mg2SnCSn2CSnTe4Mg2SnCSn2CSnTe4Mg2SnCSn2CSnTe4Mg2SnCSn2CSnTe4Mg2SnCSn2CSnTe4Mg2SnCSn2CSnTe4Mg2SnCSn2CSnTe4Mg2SnCSn2CSnTe4Mg2SnCSn2CSnTe4Mg2SnCSn2CSnTe4Mg2SnCSn2CSnTe4Mg2SnCSn2CSnTe4Mg2SnCSn2CSnTe4Mg2SnCSn2CSnTe4Mg2SnCSn2CSnTe4Mg2SnCSn2CSnTe4Mg2SnCSn2CSnTe4Mg2SnCSn2CSnTe4Mg2SnCSn2CSnTe4Mg2SnCSn2CSnTe4Mg2SnCSn2CSnTe4Mg2SnCSn2CSnTe4Mg2SnCSn2CSnTe4Mg2SnCSn2CSnTe4Mg2SnCSn2CSnTe4Mg2SnCSn2CSnTe4Mg2SnCSn2CSnTe4Mg2SnCSn2CSnTe4Mg2SnCSn2CSnTe4Mg2SnCSn2CSnTe4Mg2SnCSn2CSnTe4Mg2SnCSn2CSnTe4Mg2SnCSn2CSnTe4Mg2SnCSn2CSnTe4Mg2SnCSn2CSnTe4Mg2SnCSn2CSnTe4Mg2SnCSn2CSnTe4Mg2SnCSn2CSnTe4Mg2SnCSn2CSnTe4Mg2SnCSn2CSnTe4Mg2SnCSn2CSnTe4Mg2SnCSn2CSnTe4Mg2SnCSn2CSnTe4Mg2SnCSn2CSnTe4Mg2SnCSn2CSnTe4Mg2SnCSn2CSnTe4Mg2SnCSn2CSnTe4Mg2SnCSn2CSnTe4Mg2SnCSn2CSnTe4Mg2SnCSn2CSnTe4Mg2SnCSn2CSnTe4Mg2SnCSn2CSnTe4Mg2SnCSn2CSnTe4Mg2SnCSn2CSnTe4Mg2SnCSn2CSnTe4Mg2SnCSn2CSnTe4Mg2SnCSn2CSnTe4Mg2SnCSn2CSnTe4Mg2SnCSn2CSnTe4Mg2
_chemical_formula_sum              "C156 H24 N24 Sn240 Te240 Mg120"
_cell_length_a       55.989
_cell_length_b       56.0161
_cell_length_c       8.7673
_cell_angle_alpha    86.9538
_cell_angle_beta     93.449
_cell_angle_gamma    120.145

_symmetry_space_group_name_H-M    'P1'
_space_group_IT_number       1

loop_
  _space_group_symop_operation_xyz
  'x, y, z'

loop_
  _atom_site_type_symbol
  _atom_site_label
  _atom_site_symmetry_multiplicity
  _atom_site_fract_x
  _atom_site_fract_y
  _atom_site_fract_z
  _atom_site_occupancy
  C   C1        1.0  0.48800  0.48772  0.25678  1.0000
  C   C2        1.0  0.36341  0.46876  0.29073  1.0000
  C   C3        1.0  0.49275  0.37427  0.29052  1.0000
  H   H1        1.0  0.36119  0.44847  0.32198  1.0000
  H   H2        1.0  0.51346  0.39144  0.32145  1.0000
  N   N1        1.0  0.38737  0.49041  0.27284  1.0000
  N   N2        1.0  0.47201  0.37817  0.26401  1.0000
  C   C4        1.0  0.51211  0.99952  0.26282  1.0000
  C   C5        1.0  0.52810  0.89124  0.27908  1.0000
  C   C6        1.0  0.62673  0.11710  0.29433  1.0000
  H   H3        1.0  0.54837  0.90827  0.31754  1.0000
  H   H4        1.0  0.61058  0.11999  0.34158  1.0000
  N   N3        1.0  0.50700  0.89465  0.25584  1.0000
  N   N4        1.0  0.62200  0.09307  0.25776  1.0000
  C   C7        1.0  0.00186  0.51256  0.25120  1.0000
  C   C8        1.0  0.10781  0.63803  0.28155  1.0000
  C   C9        1.0  0.88319  0.50782  0.26996  1.0000
  H   H5        1.0  0.09020  0.63991  0.31504  1.0000
  H   H6        1.0  0.87986  0.48754  0.31231  1.0000
  N   N5        1.0  0.10526  0.61431  0.25797  1.0000
  N   N6        1.0  0.90739  0.52767  0.23505  1.0000
  C   C10       1.0  0.51365  0.51180  0.25532  1.0000
  C   C11       1.0  0.63864  0.53022  0.27944  1.0000
  C   C12       1.0  0.50759  0.62444  0.28242  1.0000
  H   H7        1.0  0.64051  0.54873  0.32945  1.0000
  H   H8        1.0  0.48748  0.60691  0.31534  1.0000
  N   N7        1.0  0.61478  0.50945  0.24412  1.0000
  N   N8        1.0  0.52819  0.62106  0.25722  1.0000
  C   C13       1.0  0.48824  0.00142  0.25624  1.0000
  C   C14       1.0  0.46755  0.10611  0.27280  1.0000
  C   C15       1.0  0.37580  0.88309  0.26517  1.0000
  H   H9        1.0  0.44853  0.08819  0.31491  1.0000
  H   H10       1.0  0.39366  0.88010  0.28974  1.0000
  N   N9        1.0  0.48871  0.10411  0.24255  1.0000
  N   N10       1.0  0.37889  0.90749  0.24627  1.0000
  C   C16       1.0  0.00093  0.48725  0.25369  1.0000
  C   C17       1.0  0.89342  0.36262  0.27520  1.0000
  C   C18       1.0  0.11878  0.49105  0.28416  1.0000
  H   H11       1.0  0.91059  0.36017  0.32523  1.0000
  H   H12       1.0  0.12198  0.51072  0.32535  1.0000
  N   N11       1.0  0.89679  0.38665  0.23813  1.0000
  N   N12       1.0  0.09432  0.47102  0.25017  1.0000
  C   C19       1.0  0.48700  0.48784  0.75480  1.0000
  C   C20       1.0  0.36187  0.46818  0.79850  1.0000
  C   C21       1.0  0.49109  0.37358  0.78633  1.0000
  H   H13       1.0  0.36069  0.44983  0.85837  1.0000
  H   H14       1.0  0.51129  0.38998  0.83009  1.0000
  N   N13       1.0  0.38486  0.48820  0.75084  1.0000
  N   N14       1.0  0.47119  0.37836  0.74962  1.0000
  C   C22       1.0  0.51272  0.99962  0.76467  1.0000
  C   C23       1.0  0.52877  0.89180  0.78151  1.0000
  C   C24       1.0  0.62545  0.11835  0.77989  1.0000
  H   H15       1.0  0.54671  0.90737  0.84796  1.0000
  H   H16       1.0  0.60790  0.12165  0.79334  1.0000
  N   N15       1.0  0.50945  0.89636  0.72872  1.0000
  N   N16       1.0  0.62209  0.09379  0.77559  1.0000
  C   C25       1.0  0.00057  0.51342  0.75043  1.0000
  C   C26       1.0  0.10716  0.63837  0.77450  1.0000
  C   C27       1.0  0.88187  0.50683  0.77674  1.0000
  H   H17       1.0  0.08978  0.64079  0.80648  1.0000
  H   H18       1.0  0.87893  0.48612  0.80397  1.0000
  N   N17       1.0  0.10429  0.61439  0.75562  1.0000
  N   N18       1.0  0.90609  0.52782  0.75411  1.0000
  C   C28       1.0  0.51230  0.51232  0.75436  1.0000
  C   C29       1.0  0.63852  0.53306  0.76181  1.0000
  C   C30       1.0  0.50834  0.62626  0.76416  1.0000
  H   H19       1.0  0.64138  0.55358  0.78242  1.0000
  H   H20       1.0  0.48806  0.60905  0.79743  1.0000
  N   N19       1.0  0.61428  0.51130  0.75432  1.0000
  N   N20       1.0  0.52866  0.62229  0.74196  1.0000
  C   C31       1.0  0.48868  0.00118  0.75740  1.0000
  C   C32       1.0  0.46916  0.10691  0.76033  1.0000
  C   C33       1.0  0.37435  0.88346  0.77701  1.0000
  H   H21       1.0  0.44905  0.08887  0.78847  1.0000
  H   H22       1.0  0.39135  0.88026  0.82254  1.0000
  N   N21       1.0  0.49079  0.10474  0.74627  1.0000
  N   N22       1.0  0.37843  0.90787  0.74190  1.0000
  C   C34       1.0  0.99943  0.48803  0.75413  1.0000
  C   C35       1.0  0.89485  0.36133  0.75622  1.0000
  C   C36       1.0  0.11921  0.49464  0.78536  1.0000
  H   H23       1.0  0.91295  0.35847  0.77119  1.0000
  H   H24       1.0  0.12285  0.51506  0.81586  1.0000
  N   N23       1.0  0.89703  0.38540  0.75479  1.0000
  N   N24       1.0  0.09452  0.47410  0.76261  1.0000
  C  Sn1       1.0  0.44329  0.51407  0.32800  1.0000
  C   C37       1.0  0.41797  0.49669  0.25362  1.0000
  C  Sn2       1.0  0.41304  0.47202  0.19239  1.0000
  C  Sn3       1.0  0.43384  0.46457  0.20586  1.0000
  C   C38       1.0  0.45914  0.48195  0.28023  1.0000
  C  Sn4       1.0  0.46409  0.50662  0.34147  1.0000
  O  Te1       1.0  0.44777  0.53863  0.38835  1.0000
  O  Te2       1.0  0.38757  0.45498  0.11850  1.0000
  O  Te3       1.0  0.42934  0.43999  0.14543  1.0000
  O  Te4       1.0  0.48955  0.52365  0.41535  1.0000
  Mg  Mg1       1.0  0.39130  0.42364  0.05512  1.0000
  Mg  Mg2       1.0  0.48583  0.55499  0.47884  1.0000
  C  Sn5       1.0  0.45290  0.41405  0.31224  1.0000
  C   C39       1.0  0.46758  0.40460  0.23534  1.0000
  C  Sn6       1.0  0.49293  0.42332  0.17292  1.0000
  C  Sn7       1.0  0.50384  0.45209  0.18774  1.0000
  C   C40       1.0  0.48916  0.46153  0.26462  1.0000
  C  Sn8       1.0  0.46380  0.44282  0.32706  1.0000
  O  Te5       1.0  0.42759  0.39496  0.37375  1.0000
  O  Te6       1.0  0.50723  0.41338  0.09650  1.0000
  O  Te7       1.0  0.52916  0.47118  0.12614  1.0000
  O  Te8       1.0  0.44951  0.45275  0.40346  1.0000
  Mg  Mg3       1.0  0.54089  0.44753  0.03237  1.0000
  Mg  Mg4       1.0  0.41586  0.41862  0.46769  1.0000
  C  Sn9       1.0  0.30478  0.44297  0.28059  1.0000
  C   C41       1.0  0.33128  0.46299  0.23754  1.0000
  C  Sn10      1.0  0.33797  0.49048  0.21361  1.0000
  C  Sn11      1.0  0.31776  0.49813  0.23322  1.0000
  C   C42       1.0  0.29128  0.47811  0.27627  1.0000
  C  Sn12      1.0  0.28457  0.45061  0.30020  1.0000
  O  Te9       1.0  0.29855  0.41561  0.30390  1.0000
  O  Te10      1.0  0.36461  0.51013  0.17057  1.0000
  O  Te11      1.0  0.32402  0.52551  0.20986  1.0000
  O  Te12      1.0  0.25796  0.43098  0.34324  1.0000
  Mg  Mg5       1.0  0.36313  0.54475  0.15228  1.0000
  Mg  Mg6       1.0  0.25941  0.39635  0.36164  1.0000
  C  Sn13      1.0  0.50639  0.32016  0.39209  1.0000
  C   C43       1.0  0.48464  0.29637  0.32690  1.0000
  C  Sn14      1.0  0.46577  0.29822  0.22228  1.0000
  C  Sn15      1.0  0.46871  0.32439  0.18190  1.0000
  C   C44       1.0  0.49046  0.34817  0.24705  1.0000
  C  Sn16      1.0  0.50933  0.34634  0.35171  1.0000
  O  Te13      1.0  0.52501  0.31783  0.49642  1.0000
  O  Te14      1.0  0.44419  0.27414  0.15866  1.0000
  O  Te15      1.0  0.45007  0.32671  0.07748  1.0000
  O  Te16      1.0  0.53091  0.37039  0.41529  1.0000
  Mg  Mg7       1.0  0.42410  0.28798  0.02179  1.0000
  Mg  Mg8       1.0  0.55101  0.35658  0.55210  1.0000
  C  Sn17      1.0  0.44860  0.22075  0.23882  1.0000
  C   C45       1.0  0.46882  0.21359  0.22046  1.0000
  C  Sn18      1.0  0.49679  0.23302  0.24360  1.0000
  C  Sn19      1.0  0.50471  0.26018  0.28609  1.0000
  C   C46       1.0  0.48450  0.26732  0.30446  1.0000
  C  Sn20      1.0  0.45653  0.24790  0.28131  1.0000
  O  Te17      1.0  0.42076  0.20099  0.21510  1.0000
  O  Te18      1.0  0.51662  0.22538  0.22451  1.0000
  O  Te19      1.0  0.53257  0.27994  0.30980  1.0000
  O  Te20      1.0  0.43670  0.25553  0.30041  1.0000
  Mg  Mg9       1.0  0.55191  0.25961  0.26989  1.0000
  Mg  Mg10      1.0  0.40140  0.22132  0.25514  1.0000
  C  Sn21      1.0  0.21771  0.45176  0.28445  1.0000
  C   C47       1.0  0.21618  0.47570  0.29791  1.0000
  C  Sn22      1.0  0.23943  0.50169  0.27498  1.0000
  C  Sn23      1.0  0.26474  0.50379  0.23772  1.0000
  C   C48       1.0  0.26626  0.47986  0.22426  1.0000
  C  Sn24      1.0  0.24302  0.45386  0.24720  1.0000
  O  Te21      1.0  0.19421  0.42599  0.30786  1.0000
  O  Te22      1.0  0.23740  0.52533  0.28911  1.0000
  O  Te23      1.0  0.28825  0.52959  0.21431  1.0000
  O  Te24      1.0  0.24504  0.43024  0.23306  1.0000
  Mg  Mg11      1.0  0.27513  0.55576  0.24631  1.0000
  Mg  Mg12      1.0  0.20732  0.39979  0.27575  1.0000
  C  Sn25      1.0  0.53779  0.95275  0.22366  1.0000
  C   C49       1.0  0.51889  0.92752  0.29134  1.0000
  C  Sn26      1.0  0.49409  0.92364  0.34402  1.0000
  C  Sn27      1.0  0.48806  0.94542  0.32866  1.0000
  C   C50       1.0  0.50695  0.97062  0.26099  1.0000
  C  Sn28      1.0  0.53175  0.97452  0.20830  1.0000
  O  Te25      1.0  0.56245  0.95617  0.17180  1.0000
  O  Te26      1.0  0.47552  0.89824  0.41133  1.0000
  O  Te27      1.0  0.46337  0.94197  0.38059  1.0000
  O  Te28      1.0  0.04788  0.99990  0.14100  1.0000
  Mg  Mg13      1.0  0.44467  0.90360  0.46416  1.0000
  Mg  Mg14      1.0  0.58116  0.99456  0.08806  1.0000
  C  Sn29      1.0  0.58605  0.03762  0.31620  1.0000
  C   C51       1.0  0.59518  0.06321  0.24113  1.0000
  C  Sn30      1.0  0.57620  0.07087  0.18183  1.0000
  C  Sn31      1.0  0.54749  0.05257  0.19798  1.0000
  C   C52       1.0  0.53837  0.02701  0.27304  1.0000
  C  Sn32      1.0  0.55734  0.01933  0.33235  1.0000
  O  Te29      1.0  0.60539  0.03040  0.37459  1.0000
  O  Te30      1.0  0.58583  0.09655  0.10718  1.0000
  O  Te31      1.0  0.52814  0.05982  0.13951  1.0000
  O  Te32      1.0  0.05016  0.99367  0.40698  1.0000
  Mg  Mg15      1.0  0.55141  0.09704  0.04720  1.0000
  Mg  Mg16      1.0  0.08455  0.99317  0.46708  1.0000
  C  Sn33      1.0  0.55263  0.85742  0.29942  1.0000
  C   C53       1.0  0.53450  0.86573  0.23396  1.0000
  C  Sn34      1.0  0.50782  0.84611  0.18443  1.0000
  C  Sn35      1.0  0.49908  0.81759  0.20076  1.0000
  C   C54       1.0  0.51720  0.80928  0.26621  1.0000
  C  Sn36      1.0  0.54388  0.82889  0.31574  1.0000
  O  Te33      1.0  0.57921  0.87739  0.34814  1.0000
  O  Te34      1.0  0.49007  0.85492  0.11929  1.0000
  O  Te35      1.0  0.47248  0.79761  0.15197  1.0000
  O  Te36      1.0  0.56163  0.82009  0.38087  1.0000
  Mg  Mg17      1.0  0.45587  0.81987  0.07048  1.0000
  Mg  Mg18      1.0  0.59582  0.85513  0.42980  1.0000
  C  Sn37      1.0  0.69137  0.16281  0.13220  1.0000
  C   C55       1.0  0.70152  0.18792  0.20460  1.0000
  C  Sn38      1.0  0.68842  0.18965  0.33077  1.0000
  C  Sn39      1.0  0.66468  0.16577  0.38579  1.0000
  C   C56       1.0  0.65453  0.14068  0.31343  1.0000
  C  Sn40      1.0  0.66762  0.13894  0.18722  1.0000
  O  Te37      1.0  0.70480  0.16157  0.00626  1.0000
  O  Te38      1.0  0.69896  0.21499  0.40122  1.0000
  O  Te39      1.0  0.65125  0.16704  0.51184  1.0000
  O  Te40      1.0  0.65710  0.11362  0.11680  1.0000
  Mg  Mg19      1.0  0.67344  0.20623  0.56910  1.0000
  Mg  Mg20      1.0  0.68962  0.11755  0.94898  1.0000
  C  Sn41      1.0  0.75686  0.26104  0.29361  1.0000
  C   C57       1.0  0.78253  0.26285  0.28292  1.0000
  C  Sn42      1.0  0.78413  0.24027  0.23605  1.0000
  C  Sn43      1.0  0.75957  0.21535  0.19899  1.0000
  C   C58       1.0  0.73392  0.21355  0.20966  1.0000
  C  Sn44      1.0  0.73230  0.23612  0.25656  1.0000
  O  Te41      1.0  0.75575  0.28388  0.34072  1.0000
  O  Te42      1.0  0.81003  0.24257  0.22629  1.0000
  O  Te43      1.0  0.76070  0.19250  0.15187  1.0000
  O  Te44      1.0  0.70642  0.23383  0.26630  1.0000
  Mg  Mg21      1.0  0.80083  0.20577  0.15642  1.0000
  Mg  Mg22      1.0  0.71560  0.27062  0.33607  1.0000
  C  Sn45      1.0  0.49110  0.75331  0.27800  1.0000
  C   C59       1.0  0.51498  0.77919  0.29020  1.0000
  C  Sn46      1.0  0.54091  0.78217  0.27001  1.0000
  C  Sn47      1.0  0.54302  0.75881  0.23683  1.0000
  C   C60       1.0  0.51915  0.73295  0.22462  1.0000
  C  Sn48      1.0  0.49321  0.72994  0.24482  1.0000
  O  Te45      1.0  0.46539  0.75081  0.29863  1.0000
  O  Te46      1.0  0.56449  0.80826  0.28281  1.0000
  O  Te47      1.0  0.56876  0.76133  0.21621  1.0000
  O  Te48      1.0  0.46964  0.70388  0.23201  1.0000
  Mg  Mg23      1.0  0.59486  0.80116  0.24495  1.0000
  Mg  Mg24      1.0  0.43926  0.71095  0.26977  1.0000
  C  Sn49      1.0  0.03835  0.56624  0.12969  1.0000
  C   C61       1.0  0.03178  0.54189  0.21320  1.0000
  C  Sn50      1.0  0.04879  0.54208  0.33693  1.0000
  C  Sn51      1.0  0.07288  0.56712  0.37811  1.0000
  C   C62       1.0  0.07944  0.59145  0.29464  1.0000
  C  Sn52      1.0  0.06243  0.59128  0.17087  1.0000
  O  Te49      1.0  0.02104  0.56557  0.00643  1.0000
  O  Te50      1.0  0.04180  0.51748  0.41866  1.0000
  O  Te51      1.0  0.09019  0.56777  0.50148  1.0000
  O  Te52      1.0  0.06942  0.61586  0.08918  1.0000
  Mg  Mg25      1.0  0.07190  0.52893  0.57755  1.0000
  Mg  Mg26      1.0  0.04633  0.59964  0.93033  1.0000
  C  Sn53      1.0  0.93013  0.49403  0.19113  1.0000
  C   C63       1.0  0.92753  0.51453  0.25978  1.0000
  C  Sn54      1.0  0.95098  0.53832  0.31288  1.0000
  C  Sn55      1.0  0.97758  0.54171  0.29696  1.0000
  C   C64       1.0  0.98017  0.52122  0.22833  1.0000
  C  Sn56      1.0  0.95673  0.49742  0.17521  1.0000
  O  Te53      1.0  0.90641  0.47041  0.13887  1.0000
  O  Te54      1.0  0.94786  0.55852  0.38116  1.0000
  O  Te55      1.0  0.00130  0.56535  0.34929  1.0000
  O  Te56      1.0  0.95984  0.47723  0.10695  1.0000
  Mg  Mg27      1.0  0.98639  0.58704  0.43421  1.0000
  Mg  Mg28      1.0  0.92133  0.44871  0.05378  1.0000
  C  Sn57      1.0  0.17464  0.68411  0.14702  1.0000
  C   C65       1.0  0.18297  0.70962  0.21045  1.0000
  C  Sn58      1.0  0.16741  0.71180  0.32190  1.0000
  C  Sn59      1.0  0.14301  0.68798  0.37106  1.0000
  C   C66       1.0  0.13468  0.66248  0.30767  1.0000
  C  Sn60      1.0  0.15024  0.66029  0.19618  1.0000
  O  Te57      1.0  0.19052  0.68241  0.03576  1.0000
  O  Te58      1.0  0.17615  0.73754  0.38359  1.0000
  O  Te59      1.0  0.12712  0.68970  0.48241  1.0000
  O  Te60      1.0  0.14150  0.63457  0.13453  1.0000
  Mg  Mg29      1.0  0.14755  0.72932  0.53215  1.0000
  Mg  Mg30      1.0  0.17711  0.63796  0.98603  1.0000
  C  Sn61      1.0  0.83869  0.53294  0.13088  1.0000
  C   C67       1.0  0.81375  0.51666  0.20350  1.0000
  C  Sn62      1.0  0.81183  0.49822  0.32229  1.0000
  C  Sn63      1.0  0.83534  0.49601  0.36958  1.0000
  C   C68       1.0  0.86026  0.51228  0.29701  1.0000
  C  Sn64      1.0  0.86220  0.53073  0.17817  1.0000
  O  Te61      1.0  0.84014  0.55124  0.01238  1.0000
  O  Te62      1.0  0.78667  0.48216  0.39311  1.0000
  O  Te63      1.0  0.83387  0.47769  0.48818  1.0000
  O  Te64      1.0  0.88734  0.54678  0.10739  1.0000
  Mg  Mg31      1.0  0.79504  0.46024  0.54916  1.0000
  Mg  Mg32      1.0  0.88600  0.56391  0.95139  1.0000
  C  Sn65      1.0  0.74059  0.49676  0.27287  1.0000
  C   C69       1.0  0.73913  0.52085  0.28008  1.0000
  C  Sn66      1.0  0.76247  0.54667  0.25487  1.0000
  C  Sn67      1.0  0.78781  0.54845  0.22168  1.0000
  C   C70       1.0  0.78927  0.52437  0.21446  1.0000
  C  Sn68      1.0  0.76593  0.49854  0.23967  1.0000
  O  Te65      1.0  0.71699  0.47117  0.29845  1.0000
  O  Te66      1.0  0.76050  0.57047  0.26274  1.0000
  O  Te67      1.0  0.81142  0.57407  0.19609  1.0000
  O  Te68      1.0  0.76789  0.47475  0.23180  1.0000
  Mg  Mg33      1.0  0.79836  0.60057  0.21919  1.0000
  Mg  Mg34      1.0  0.73005  0.44465  0.27525  1.0000
  C  Sn69      1.0  0.23779  0.78319  0.30448  1.0000
  C   C71       1.0  0.26345  0.78468  0.30210  1.0000
  C  Sn70      1.0  0.26514  0.76178  0.26223  1.0000
  C  Sn71      1.0  0.24068  0.73686  0.22384  1.0000
  C   C72       1.0  0.21505  0.73537  0.22621  1.0000
  C  Sn72      1.0  0.21333  0.75827  0.26609  1.0000
  O  Te69      1.0  0.23659  0.80634  0.34468  1.0000
  O  Te70      1.0  0.29102  0.76377  0.26072  1.0000
  O  Te71      1.0  0.24190  0.71370  0.18363  1.0000
  O  Te72      1.0  0.18747  0.75628  0.26759  1.0000
  Mg  Mg35      1.0  0.28197  0.72661  0.19820  1.0000
  Mg  Mg36      1.0  0.19650  0.79344  0.33001  1.0000
  C  Sn73      1.0  0.55243  0.49592  0.38959  1.0000
  C   C73       1.0  0.54493  0.51354  0.30935  1.0000
  C  Sn74      1.0  0.56006  0.52966  0.18545  1.0000
  C  Sn75      1.0  0.58317  0.52812  0.14074  1.0000
  C   C74       1.0  0.59066  0.51050  0.22094  1.0000
  C  Sn76      1.0  0.57554  0.49438  0.34488  1.0000
  O  Te73      1.0  0.53700  0.47999  0.51309  1.0000
  O  Te74      1.0  0.55217  0.54713  0.10702  1.0000
  O  Te75      1.0  0.59860  0.54406  0.01713  1.0000
  O  Te76      1.0  0.58341  0.47691  0.42326  1.0000
  Mg  Mg37      1.0  0.58671  0.55992  0.94634  1.0000
  Mg  Mg38      1.0  0.55589  0.45930  0.58390  1.0000
  C  Sn77      1.0  0.50370  0.55459  0.12097  1.0000
  C   C75       1.0  0.51916  0.54445  0.20198  1.0000
  C  Sn78      1.0  0.53700  0.55907  0.32376  1.0000
  C  Sn79      1.0  0.53943  0.58433  0.36553  1.0000
  C   C76       1.0  0.52397  0.59446  0.28457  1.0000
  C  Sn80      1.0  0.50613  0.57986  0.16274  1.0000
  O  Te77      1.0  0.49300  0.53484  0.99962  1.0000
  O  Te78      1.0  0.55225  0.54852  0.40300  1.0000
  O  Te79      1.0  0.55716  0.59929  0.48699  1.0000
  O  Te80      1.0  0.49088  0.59039  0.08355  1.0000
  Mg  Mg39      1.0  0.57358  0.57643  0.55996  1.0000
  Mg  Mg40      1.0  0.47655  0.55769  0.92663  1.0000
  C  Sn81      1.0  0.68608  0.51511  0.11629  1.0000
  C   C77       1.0  0.71132  0.53075  0.19581  1.0000
  C  Sn82      1.0  0.71281  0.54506  0.32505  1.0000
  C  Sn83      1.0  0.68857  0.54370  0.37593  1.0000
  C   C78       1.0  0.66336  0.52806  0.29645  1.0000
  C  Sn84      1.0  0.66185  0.51375  0.16717  1.0000
  O  Te81      1.0  0.69209  0.49617  0.98738  1.0000
  O  Te82      1.0  0.73828  0.56057  0.40263  1.0000
  O  Te83      1.0  0.68960  0.55786  0.50495  1.0000
  O  Te84      1.0  0.63640  0.49824  0.08963  1.0000
  Mg  Mg41      1.0  0.72909  0.57619  0.57213  1.0000
  Mg  Mg42      1.0  0.65256  0.47781  0.92017  1.0000
  C  Sn85      1.0  0.49349  0.67669  0.37615  1.0000
  C   C79       1.0  0.51350  0.70112  0.30659  1.0000
  C  Sn86      1.0  0.53087  0.70047  0.20109  1.0000
  C  Sn87      1.0  0.52819  0.67486  0.16427  1.0000
  C   C80       1.0  0.50820  0.65045  0.23379  1.0000
  C  Sn88      1.0  0.49081  0.65109  0.33933  1.0000
  O  Te85      1.0  0.47634  0.67784  0.48128  1.0000
  O  Te86      1.0  0.55072  0.72516  0.13308  1.0000
  O  Te87      1.0  0.54536  0.67373  0.05905  1.0000
  O  Te88      1.0  0.47097  0.62641  0.40730  1.0000
  Mg  Mg43      1.0  0.57624  0.70813  0.99681  1.0000
  Mg  Mg44      1.0  0.45244  0.63862  0.54351  1.0000
  C  Sn89      1.0  0.51390  0.07361  0.31431  1.0000
  C   C81       1.0  0.49549  0.07999  0.23297  1.0000
  C  Sn90      1.0  0.47064  0.05902  0.17046  1.0000
  C  Sn91      1.0  0.46404  0.03109  0.18972  1.0000
  C   C82       1.0  0.48244  0.02472  0.27104  1.0000
  C  Sn92      1.0  0.50730  0.04568  0.33357  1.0000
  O  Te89      1.0  0.53863  0.09490  0.37582  1.0000
  O  Te90      1.0  0.45257  0.06591  0.08955  1.0000
  O  Te91      1.0  0.43929  0.00979  0.12812  1.0000
  O  Te92      1.0  0.52536  0.03880  0.41445  1.0000
  Mg  Mg45      1.0  0.42140  0.02959  0.02732  1.0000
  Mg  Mg46      1.0  0.55652  0.07510  0.47680  1.0000
  C  Sn93      1.0  0.41506  0.96274  0.30276  1.0000
  C   C83       1.0  0.40496  0.93854  0.22120  1.0000
  C  Sn94      1.0  0.42319  0.93197  0.15795  1.0000
  C  Sn95      1.0  0.45212  0.94995  0.17668  1.0000
  C   C84       1.0  0.46220  0.97413  0.25822  1.0000
  C  Sn96      1.0  0.44399  0.98072  0.32149  1.0000
  O  Te93      1.0  0.39646  0.96889  0.36502  1.0000
  O  Te94      1.0  0.41260  0.90766  0.07684  1.0000
  O  Te95      1.0  0.47072  0.94377  0.11433  1.0000
  O  Te96      1.0  0.95213  0.00500  0.40258  1.0000
  Mg  Mg47      1.0  0.44626  0.90827  0.01352  1.0000
  Mg  Mg48      1.0  0.91849  0.00441  0.46602  1.0000
  C  Sn97      1.0  0.48570  0.17344  0.13074  1.0000
  C   C85       1.0  0.46894  0.18083  0.20383  1.0000
  C  Sn98      1.0  0.45249  0.16425  0.32273  1.0000
  C  Sn99      1.0  0.45280  0.13978  0.36963  1.0000
  C   C86       1.0  0.46955  0.13240  0.29659  1.0000
  C  Sn100     1.0  0.48601  0.14897  0.17765  1.0000
  O  Te97      1.0  0.50198  0.19033  0.01215  1.0000
  O  Te98      1.0  0.43590  0.17206  0.39403  1.0000
  O  Te99      1.0  0.43649  0.12289  0.48833  1.0000
  O  Te100     1.0  0.50260  0.14117  0.10639  1.0000
  Mg  Mg49      1.0  0.41737  0.14228  0.55002  1.0000
  Mg  Mg50      1.0  0.52815  0.16615  0.95045  1.0000
  C  Sn101     1.0  0.30594  0.83929  0.14597  1.0000
  C   C87       1.0  0.29855  0.81311  0.20832  1.0000
  C  Sn102     1.0  0.31619  0.80963  0.31493  1.0000
  C  Sn103     1.0  0.34176  0.83279  0.36025  1.0000
  C   C88       1.0  0.34914  0.85895  0.29793  1.0000
  C  Sn104     1.0  0.33151  0.86246  0.19129  1.0000
  O  Te101     1.0  0.28798  0.84229  0.03957  1.0000
  O  Te102     1.0  0.30836  0.78325  0.37563  1.0000
  O  Te103     1.0  0.35973  0.82977  0.46673  1.0000
  O  Te104     1.0  0.33933  0.88881  0.13062  1.0000
  Mg  Mg51      1.0  0.33985  0.78969  0.51697  1.0000
  Mg  Mg52      1.0  0.31486  0.87760  0.98934  1.0000
  C  Sn105     1.0  0.94918  0.44807  0.39029  1.0000
  C   C89       1.0  0.97277  0.45525  0.30979  1.0000
  C  Sn106     1.0  0.97106  0.44029  0.18308  1.0000
  C  Sn107     1.0  0.94522  0.41769  0.13576  1.0000
  C   C90       1.0  0.92165  0.41052  0.21621  1.0000
  C  Sn108     1.0  0.92334  0.42547  0.34297  1.0000
  O  Te105     1.0  0.95137  0.46332  0.51663  1.0000
  O  Te106     1.0  0.99493  0.44785  0.10445  1.0000
  O  Te107     1.0  0.94305  0.40244  0.00931  1.0000
  O  Te108     1.0  0.89949  0.41792  0.42155  1.0000
  Mg  Mg53      1.0  0.98841  0.41594  0.93941  1.0000
  Mg  Mg54      1.0  0.91300  0.44502  0.58655  1.0000
  C  Sn109     1.0  0.05135  0.49728  0.12329  1.0000
  C   C91       1.0  0.02713  0.48208  0.20377  1.0000
  C  Sn110     1.0  0.02567  0.46381  0.32250  1.0000
  C  Sn111     1.0  0.04891  0.46066  0.36168  1.0000
  C   C92       1.0  0.07311  0.47585  0.28125  1.0000
  C  Sn112     1.0  0.07459  0.49413  0.16248  1.0000
  O  Te109     1.0  0.05235  0.51543  0.00502  1.0000
  O  Te110     1.0  0.00123  0.44883  0.40127  1.0000
  O  Te111     1.0  0.04789  0.44249  0.48006  1.0000
  O  Te112     1.0  0.09901  0.50910  0.08376  1.0000
  Mg  Mg55      1.0  0.01000  0.42669  0.55360  1.0000
  Mg  Mg56      1.0  0.09728  0.52646  0.93146  1.0000
  C  Sn113     1.0  0.85962  0.30476  0.31306  1.0000
  C   C93       1.0  0.86775  0.33018  0.23805  1.0000
  C  Sn114     1.0  0.84797  0.33619  0.17195  1.0000
  C  Sn115     1.0  0.81947  0.31638  0.18109  1.0000
  C   C94       1.0  0.81135  0.29097  0.25608  1.0000
  C  Sn116     1.0  0.83112  0.28495  0.32220  1.0000
  O  Te113     1.0  0.87974  0.29920  0.37832  1.0000
  O  Te114     1.0  0.85660  0.36174  0.09751  1.0000
  O  Te115     1.0  0.79934  0.32196  0.11574  1.0000
  O  Te116     1.0  0.82250  0.25942  0.39662  1.0000
  Mg  Mg57      1.0  0.82137  0.35967  0.02666  1.0000
  Mg  Mg58      1.0  0.85771  0.26147  0.46758  1.0000
  C  Sn117     1.0  0.17671  0.51355  0.32097  1.0000
  C   C95       1.0  0.15081  0.49749  0.24869  1.0000
  C  Sn118     1.0  0.14363  0.47197  0.18950  1.0000
  C  Sn119     1.0  0.16273  0.46229  0.20291  1.0000
  C   C96       1.0  0.18860  0.47834  0.27517  1.0000
  C  Sn120     1.0  0.19580  0.50387  0.33438  1.0000
  O  Te117     1.0  0.18345  0.53900  0.37932  1.0000
  O  Te118     1.0  0.11763  0.45629  0.11767  1.0000
  O  Te119     1.0  0.15597  0.43682  0.14448  1.0000
  O  Te120     1.0  0.22179  0.51954  0.40619  1.0000
  Mg  Mg59      1.0  0.11804  0.42298  0.05658  1.0000
  Mg  Mg60      1.0  0.22139  0.55284  0.46740  1.0000
  C  Sn121     1.0  0.44967  0.50118  0.89236  1.0000
  C   C97       1.0  0.45603  0.48438  0.81146  1.0000
  C  Sn122     1.0  0.43886  0.46914  0.68918  1.0000
  C  Sn123     1.0  0.41484  0.47075  0.64679  1.0000
  C   C98       1.0  0.40850  0.48754  0.72764  1.0000
  C  Sn124     1.0  0.42566  0.50279  0.84997  1.0000
  O  Te121     1.0  0.46013  0.52103  0.01422  1.0000
  O  Te122     1.0  0.44563  0.45248  0.61006  1.0000
  O  Te123     1.0  0.39738  0.45567  0.52482  1.0000
  O  Te124     1.0  0.41889  0.51944  0.92905  1.0000
  Mg  Mg61      1.0  0.41538  0.43592  0.45225  1.0000
  Mg  Mg62      1.0  0.44213  0.54082  0.08681  1.0000
  C  Sn125     1.0  0.49618  0.44689  0.62436  1.0000
  C   C99       1.0  0.48129  0.45605  0.70177  1.0000
  C  Sn126     1.0  0.46422  0.43989  0.81965  1.0000
  C  Sn127     1.0  0.46200  0.41405  0.86112  1.0000
  C   C100      1.0  0.47688  0.40490  0.78376  1.0000
  C  Sn128     1.0  0.49395  0.42105  0.66583  1.0000
  O  Te125     1.0  0.51312  0.46338  0.50688  1.0000
  O  Te126     1.0  0.44954  0.44948  0.89533  1.0000
  O  Te127     1.0  0.44504  0.39756  0.97871  1.0000
  O  Te128     1.0  0.50864  0.41147  0.59019  1.0000
  Mg  Mg63      1.0  0.42217  0.42436  0.04773  1.0000
  Mg  Mg64      1.0  0.52901  0.44138  0.43783  1.0000
  C  Sn129     1.0  0.30442  0.44471  0.84440  1.0000
  C   C101      1.0  0.32843  0.46017  0.76256  1.0000
  C  Sn130     1.0  0.33359  0.48475  0.68638  1.0000
  C  Sn131     1.0  0.31435  0.49409  0.69220  1.0000
  C   C102      1.0  0.29036  0.47863  0.77402  1.0000
  C  Sn132     1.0  0.28518  0.45405  0.85022  1.0000
  O  Te129     1.0  0.29969  0.42021  0.91970  1.0000
  O  Te130     1.0  0.35774  0.49984  0.60525  1.0000
  O  Te131     1.0  0.31910  0.51861  0.61680  1.0000
  O  Te132     1.0  0.26105  0.43896  0.93133  1.0000
  Mg  Mg65      1.0  0.35496  0.53193  0.52148  1.0000
  Mg  Mg66      1.0  0.25681  0.41169  0.01521  1.0000
  C  Sn133     1.0  0.51287  0.33761  0.82241  1.0000
  C   C103      1.0  0.49624  0.34737  0.75205  1.0000
  C  Sn134     1.0  0.47011  0.32896  0.68974  1.0000
  C  Sn135     1.0  0.46039  0.30017  0.69800  1.0000
  C   C104      1.0  0.47701  0.29042  0.76835  1.0000
  C  Sn136     1.0  0.50315  0.30883  0.83068  1.0000
  O  Te133     1.0  0.53893  0.35640  0.88395  1.0000
  O  Te134     1.0  0.45386  0.33921  0.61992  1.0000
  O  Te135     1.0  0.43431  0.28139  0.63638  1.0000
  O  Te136     1.0  0.51939  0.29859  0.90048  1.0000
  Mg  Mg67      1.0  0.41985  0.30540  0.55297  1.0000
  Mg  Mg68      1.0  0.55340  0.33238  0.96753  1.0000
  C  Sn137     1.0  0.50477  0.25892  0.69497  1.0000
  C   C105      1.0  0.48368  0.26530  0.69867  1.0000
  C  Sn138     1.0  0.45694  0.24484  0.73480  1.0000
  C  Sn139     1.0  0.45115  0.21742  0.76803  1.0000
  C   C106      1.0  0.47223  0.21106  0.76436  1.0000
  C  Sn140     1.0  0.49899  0.23150  0.72820  1.0000
  O  Te137     1.0  0.53136  0.27970  0.65857  1.0000
  O  Te138     1.0  0.43619  0.25171  0.73772  1.0000
  O  Te139     1.0  0.42453  0.19664  0.80445  1.0000
  O  Te140     1.0  0.51972  0.22464  0.72530  1.0000
  Mg  Mg69      1.0  0.40325  0.21620  0.79369  1.0000
  Mg  Mg70      1.0  0.55268  0.26014  0.66943  1.0000
  C  Sn141     1.0  0.26294  0.50626  0.78987  1.0000
  C   C107      1.0  0.26380  0.48173  0.80305  1.0000
  C  Sn142     1.0  0.23964  0.45630  0.78341  1.0000
  C  Sn143     1.0  0.21410  0.45537  0.74979  1.0000
  C   C108      1.0  0.21325  0.47989  0.73659  1.0000
  C  Sn144     1.0  0.23740  0.50533  0.75625  1.0000
  O  Te141     1.0  0.28735  0.53145  0.80995  1.0000
  O  Te142     1.0  0.24102  0.43205  0.79719  1.0000
  O  Te143     1.0  0.18968  0.43014  0.72971  1.0000
  O  Te144     1.0  0.23603  0.52957  0.74245  1.0000
  Mg  Mg71      1.0  0.20215  0.40277  0.75977  1.0000
  Mg  Mg72      1.0  0.27489  0.55885  0.77978  1.0000
  C  Sn145     1.0  0.53869  0.95424  0.69808  1.0000
  C   C109      1.0  0.52125  0.92888  0.76983  1.0000
  C  Sn146     1.0  0.49727  0.92442  0.83674  1.0000
  C  Sn147     1.0  0.49058  0.94575  0.83175  1.0000
  C   C110      1.0  0.50802  0.97109  0.76001  1.0000
  C  Sn148     1.0  0.53200  0.97556  0.69309  1.0000
  O  Te145     1.0  0.56256  0.95823  0.63194  1.0000
  O  Te146     1.0  0.48015  0.89890  0.90786  1.0000
  O  Te147     1.0  0.46669  0.94173  0.89797  1.0000
  O  Te148     1.0  0.04668  0.00107  0.62198  1.0000
  Mg  Mg73      1.0  0.44994  0.90340  0.98149  1.0000
  Mg  Mg74      1.0  0.57932  0.99658  0.54825  1.0000
  C  Sn149     1.0  0.56708  0.03130  0.89590  1.0000
  C   C111      1.0  0.54382  0.02755  0.80822  1.0000
  C  Sn150     1.0  0.54662  0.04510  0.68278  1.0000
  C  Sn151     1.0  0.57322  0.06683  0.64410  1.0000
  C   C112      1.0  0.59647  0.07057  0.73173  1.0000
  C  Sn152     1.0  0.59368  0.05303  0.85722  1.0000
  O  Te149     1.0  0.55678  0.01830  0.02080  1.0000
  O  Te150     1.0  0.52306  0.04095  0.59688  1.0000
  O  Te151     1.0  0.57649  0.08463  0.51908  1.0000
  O  Te152     1.0  0.61722  0.05717  0.94308  1.0000
  Mg  Mg75      1.0  0.53817  0.07060  0.43716  1.0000
  Mg  Mg76      1.0  0.59513  0.03232  0.10276  1.0000
  C  Sn153     1.0  0.50005  0.83639  0.68606  1.0000
  C   C113      1.0  0.51842  0.85831  0.77804  1.0000
  C  Sn154     1.0  0.54220  0.85920  0.84381  1.0000
  C  Sn155     1.0  0.54774  0.83773  0.81701  1.0000
  C   C114      1.0  0.52939  0.81582  0.72506  1.0000
  C  Sn156     1.0  0.50560  0.81492  0.65926  1.0000
  O  Te153     1.0  0.47641  0.83593  0.62148  1.0000
  O  Te154     1.0  0.56024  0.88132  0.93539  1.0000
  O  Te155     1.0  0.57141  0.83821  0.88169  1.0000
  O  Te156     1.0  0.48756  0.79281  0.56771  1.0000
  Mg  Mg77      1.0  0.58971  0.87270  0.99794  1.0000
  Mg  Mg78      1.0  0.45810  0.80142  0.50504  1.0000
  C  Sn157     1.0  0.69537  0.15951  0.67740  1.0000
  C   C115      1.0  0.70293  0.18685  0.70394  1.0000
  C  Sn158     1.0  0.68519  0.19280  0.77794  1.0000
  C  Sn159     1.0  0.65936  0.17096  0.82653  1.0000
  C   C116      1.0  0.65180  0.14364  0.80001  1.0000
  C  Sn160     1.0  0.66953  0.13768  0.72599  1.0000
  O  Te157     1.0  0.71343  0.15405  0.60322  1.0000
  O  Te158     1.0  0.69321  0.22029  0.80314  1.0000
  O  Te159     1.0  0.64129  0.17645  0.90075  1.0000
  O  Te160     1.0  0.66153  0.11020  0.70081  1.0000
  Mg  Mg79      1.0  0.66149  0.21724  0.90896  1.0000
  Mg  Mg80      1.0  0.69323  0.11323  0.59508  1.0000
  C  Sn161     1.0  0.74184  0.24909  0.77622  1.0000
  C   C117      1.0  0.73299  0.22297  0.71943  1.0000
  C  Sn162     1.0  0.75222  0.21582  0.67759  1.0000
  C  Sn163     1.0  0.78090  0.23516  0.69292  1.0000
  C   C118      1.0  0.78973  0.26125  0.74971  1.0000
  C  Sn164     1.0  0.77051  0.26843  0.79156  1.0000
  O  Te161     1.0  0.72225  0.25580  0.81735  1.0000
  O  Te162     1.0  0.74288  0.18959  0.62104  1.0000
  O  Te163     1.0  0.80049  0.22842  0.65173  1.0000
  O  Te164     1.0  0.77984  0.29464  0.84810  1.0000
  Mg  Mg81      1.0  0.77756  0.19014  0.58050  1.0000
  Mg  Mg82      1.0  0.74518  0.29410  0.88874  1.0000
  C  Sn165     1.0  0.54395  0.76269  0.79552  1.0000
  C   C119      1.0  0.52030  0.73719  0.76747  1.0000
  C  Sn166     1.0  0.49631  0.73595  0.70244  1.0000
  C  Sn167     1.0  0.49596  0.76071  0.66456  1.0000
  C   C120      1.0  0.51961  0.78619  0.69258  1.0000
  C  Sn168     1.0  0.54360  0.78745  0.75763  1.0000
  O  Te165     1.0  0.56770  0.76345  0.86061  1.0000
  O  Te166     1.0  0.47292  0.71021  0.67553  1.0000
  O  Te167     1.0  0.47219  0.75993  0.59942  1.0000
  O  Te168     1.0  0.56699  0.81317  0.78452  1.0000
  Mg  Mg83      1.0  0.44555  0.71990  0.58470  1.0000
  Mg  Mg84      1.0  0.59437  0.80350  0.87527  1.0000
  C  Sn169     1.0  0.05346  0.55065  0.89348  1.0000
  C   C121      1.0  0.02928  0.54430  0.80733  1.0000
  C  Sn170     1.0  0.02991  0.56110  0.68221  1.0000
  C  Sn171     1.0  0.05525  0.58472  0.64228  1.0000
  C   C122      1.0  0.07943  0.59105  0.72838  1.0000
  C  Sn172     1.0  0.07881  0.57427  0.85355  1.0000
  O  Te169     1.0  0.04534  0.53836  0.01810  1.0000
  O  Te170     1.0  0.00546  0.55434  0.59784  1.0000
  O  Te171     1.0  0.05636  0.60181  0.51754  1.0000
  O  Te172     1.0  0.10324  0.58101  0.93787  1.0000
  Mg  Mg85      1.0  0.01755  0.58399  0.43792  1.0000
  Mg  Mg86      1.0  0.08417  0.55617  0.09776  1.0000
  C  Sn173     1.0  0.96209  0.54739  0.80604  1.0000
  C   C123      1.0  0.93664  0.53274  0.72684  1.0000
  C  Sn174     1.0  0.92913  0.50767  0.66050  1.0000
  C  Sn175     1.0  0.94743  0.49702  0.67368  1.0000
  C   C124      1.0  0.97286  0.51167  0.75286  1.0000
  C  Sn176     1.0  0.98039  0.53674  0.81921  1.0000
  O  Te173     1.0  0.96917  0.57241  0.87145  1.0000
  O  Te174     1.0  0.90358  0.49339  0.58184  1.0000
  O  Te175     1.0  0.94032  0.47197  0.60818  1.0000
  O  Te176     1.0  0.00592  0.55101  0.89785  1.0000
  Mg  Mg87      1.0  0.90326  0.46017  0.51254  1.0000
  Mg  Mg88      1.0  0.00625  0.58423  0.96727  1.0000
  C  Sn177     1.0  0.17358  0.68337  0.63130  1.0000
  C   C125      1.0  0.18239  0.70908  0.69363  1.0000
  C  Sn178     1.0  0.16731  0.71170  0.80634  1.0000
  C  Sn179     1.0  0.14292  0.68814  0.85791  1.0000
  C   C126      1.0  0.13413  0.66246  0.79561  1.0000
  C  Sn180     1.0  0.14919  0.65981  0.68286  1.0000
  O  Te177     1.0  0.18897  0.68123  0.51874  1.0000
  O  Te178     1.0  0.17653  0.73762  0.86691  1.0000
  O  Te179     1.0  0.12753  0.69031  0.97056  1.0000
  O  Te180     1.0  0.13999  0.63391  0.62234  1.0000
  Mg  Mg89      1.0  0.14148  0.73483  0.01797  1.0000
  Mg  Mg90      1.0  0.16802  0.64148  0.47133  1.0000
  C  Sn181     1.0  0.82381  0.48328  0.79722  1.0000
  C   C127      1.0  0.84969  0.50177  0.73959  1.0000
  C  Sn182     1.0  0.85688  0.52910  0.70336  1.0000
  C  Sn183     1.0  0.83782  0.53814  0.72528  1.0000
  C   C128      1.0  0.81196  0.51966  0.78290  1.0000
  C  Sn184     1.0  0.80474  0.49232  0.81914  1.0000
  O  Te181     1.0  0.81706  0.45605  0.83267  1.0000
  O  Te182     1.0  0.88288  0.54720  0.64584  1.0000
  O  Te183     1.0  0.84459  0.56540  0.68977  1.0000
  O  Te184     1.0  0.77877  0.47423  0.87665  1.0000
  Mg  Mg91      1.0  0.88249  0.58227  0.61462  1.0000
  Mg  Mg92      1.0  0.77914  0.43916  0.90798  1.0000
  C  Sn185     1.0  0.73814  0.49452  0.79952  1.0000
  C   C129      1.0  0.73699  0.51890  0.79618  1.0000
  C  Sn186     1.0  0.76025  0.54417  0.75996  1.0000
  C  Sn187     1.0  0.78517  0.54510  0.72628  1.0000
  C   C130      1.0  0.78631  0.52074  0.72961  1.0000
  C  Sn188     1.0  0.76306  0.49545  0.76584  1.0000
  O  Te185     1.0  0.71463  0.46948  0.83601  1.0000
  O  Te186     1.0  0.75860  0.56827  0.75741  1.0000
  O  Te187     1.0  0.80868  0.57017  0.68978  1.0000
  O  Te188     1.0  0.76469  0.47136  0.76838  1.0000
  Mg  Mg93      1.0  0.79617  0.59736  0.70115  1.0000
  Mg  Mg94      1.0  0.72714  0.44226  0.82454  1.0000
  C  Sn189     1.0  0.24450  0.73865  0.79383  1.0000
  C   C131      1.0  0.21874  0.73706  0.78027  1.0000
  C  Sn190     1.0  0.21663  0.75995  0.72804  1.0000
  C  Sn191     1.0  0.24076  0.78495  0.68842  1.0000
  C   C132      1.0  0.26650  0.78653  0.70195  1.0000
  C  Sn192     1.0  0.26863  0.76365  0.75421  1.0000
  O  Te189     1.0  0.24613  0.71551  0.84629  1.0000
  O  Te190     1.0  0.19065  0.75786  0.71550  1.0000
  O  Te191     1.0  0.23912  0.80810  0.63592  1.0000
  O  Te192     1.0  0.29459  0.76573  0.76673  1.0000
  Mg  Mg95      1.0  0.19908  0.79504  0.63839  1.0000
  Mg  Mg96      1.0  0.28619  0.72856  0.84374  1.0000
  C  Sn193     1.0  0.58485  0.53971  0.69911  1.0000
  C   C133      1.0  0.59218  0.52178  0.77716  1.0000
  C  Sn194     1.0  0.57197  0.49705  0.84293  1.0000
  C  Sn195     1.0  0.54384  0.49009  0.83036  1.0000
  C   C134      1.0  0.53652  0.50801  0.75233  1.0000
  C  Sn196     1.0  0.55672  0.53275  0.68654  1.0000
  O  Te193     1.0  0.60540  0.56433  0.63424  1.0000
  O  Te194     1.0  0.57981  0.47946  0.92044  1.0000
  O  Te195     1.0  0.52329  0.46545  0.89532  1.0000
  O  Te196     1.0  0.54890  0.55033  0.60905  1.0000
  Mg  Mg97      1.0  0.54425  0.44827  0.98938  1.0000
  Mg  Mg98      1.0  0.58443  0.58152  0.54000  1.0000
  C  Sn197     1.0  0.49414  0.56596  0.69556  1.0000
  C   C135      1.0  0.51591  0.58949  0.76280  1.0000
  C  Sn198     1.0  0.53993  0.58962  0.81742  1.0000
  C  Sn199     1.0  0.54225  0.56574  0.80448  1.0000
  C   C136      1.0  0.52049  0.54223  0.73725  1.0000
  C  Sn200     1.0  0.49646  0.54208  0.68262  1.0000
  O  Te197     1.0  0.47032  0.56630  0.64173  1.0000
  O  Te198     1.0  0.56141  0.61339  0.88425  1.0000
  O  Te199     1.0  0.56610  0.56543  0.85838  1.0000
  O  Te200     1.0  0.47499  0.51834  0.61580  1.0000
  Mg  Mg99      1.0  0.58972  0.60283  0.94037  1.0000
  Mg  Mg100     1.0  0.44668  0.52888  0.55957  1.0000
  C  Sn201     1.0  0.68170  0.50859  0.64053  1.0000
  C   C137      1.0  0.70841  0.52708  0.69567  1.0000
  C  Sn202     1.0  0.71287  0.54759  0.79609  1.0000
  C  Sn203     1.0  0.69016  0.54967  0.84244  1.0000
  C   C138      1.0  0.66347  0.53119  0.78733  1.0000
  C  Sn204     1.0  0.65899  0.51067  0.68688  1.0000
  O  Te201     1.0  0.67772  0.48824  0.54024  1.0000
  O  Te202     1.0  0.73976  0.56584  0.84964  1.0000
  O  Te203     1.0  0.69415  0.57005  0.94281  1.0000
  O  Te204     1.0  0.63212  0.49243  0.63336  1.0000
  Mg  Mg101     1.0  0.73463  0.59005  0.98442  1.0000
  Mg  Mg102     1.0  0.63722  0.46821  0.49865  1.0000
  C  Sn205     1.0  0.49356  0.67859  0.84272  1.0000
  C   C139      1.0  0.51429  0.70304  0.77724  1.0000
  C  Sn206     1.0  0.53287  0.70244  0.68029  1.0000
  C  Sn207     1.0  0.53069  0.67685  0.64804  1.0000
  C   C140      1.0  0.50997  0.65242  0.71348  1.0000
  C  Sn208     1.0  0.49137  0.65300  0.81047  1.0000
  O  Te205     1.0  0.47520  0.67968  0.93930  1.0000
  O  Te206     1.0  0.55343  0.72716  0.61622  1.0000
  O  Te207     1.0  0.54907  0.67578  0.55137  1.0000
  O  Te208     1.0  0.47082  0.62830  0.87449  1.0000
  Mg  Mg103     1.0  0.57353  0.71500  0.49170  1.0000
  Mg  Mg104     1.0  0.45070  0.64044  0.99896  1.0000
  C  Sn209     1.0  0.51515  0.07339  0.81721  1.0000
  C   C141      1.0  0.49727  0.08034  0.73455  1.0000
  C  Sn210     1.0  0.47239  0.05977  0.67000  1.0000
  C  Sn211     1.0  0.46521  0.03166  0.68853  1.0000
  C   C142      1.0  0.48308  0.02473  0.77116  1.0000
  C  Sn212     1.0  0.50797  0.04528  0.83574  1.0000
  O  Te209     1.0  0.53993  0.09429  0.88075  1.0000
  O  Te210     1.0  0.45485  0.06723  0.58780  1.0000
  O  Te211     1.0  0.44041  0.01076  0.62489  1.0000
  O  Te212     1.0  0.52550  0.03784  0.91791  1.0000
  Mg  Mg105     1.0  0.42339  0.03128  0.52292  1.0000
  Mg  Mg106     1.0  0.55696  0.07376  0.98290  1.0000
  C  Sn213     1.0  0.43419  0.96976  0.86709  1.0000
  C   C143      1.0  0.45738  0.97290  0.79662  1.0000
  C  Sn214     1.0  0.45435  0.95521  0.68125  1.0000
  C  Sn215     1.0  0.42760  0.93394  0.63526  1.0000
  C   C144      1.0  0.40443  0.93081  0.70569  1.0000
  C  Sn216     1.0  0.40744  0.94849  0.82111  1.0000
  O  Te213     1.0  0.43770  0.98768  0.98218  1.0000
  O  Te214     1.0  0.47784  0.95875  0.61252  1.0000
  O  Te215     1.0  0.42410  0.91602  0.52008  1.0000
  O  Te216     1.0  0.38397  0.94496  0.88979  1.0000
  Mg  Mg107     1.0  0.46240  0.92914  0.46094  1.0000
  Mg  Mg108     1.0  0.39237  0.97936  0.04132  1.0000
  C  Sn217     1.0  0.45264  0.15757  0.84638  1.0000
  C   C145      1.0  0.47289  0.18247  0.78211  1.0000
  C  Sn218     1.0  0.49129  0.18270  0.68053  1.0000
  C  Sn219     1.0  0.48941  0.15751  0.64230  1.0000
  C   C146      1.0  0.46918  0.13262  0.70653  1.0000
  C  Sn220     1.0  0.45077  0.13238  0.80815  1.0000
  O  Te217     1.0  0.43446  0.15783  0.94767  1.0000
  O  Te218     1.0  0.51136  0.20785  0.61778  1.0000
  O  Te219     1.0  0.50762  0.15726  0.54093  1.0000
  O  Te220     1.0  0.43071  0.10725  0.87086  1.0000
  Mg  Mg109     1.0  0.53139  0.19680  0.48532  1.0000
  Mg  Mg110     1.0  0.40365  0.12307  0.00327  1.0000
  C  Sn221     1.0  0.31998  0.81747  0.88203  1.0000
  C   C147      1.0  0.29687  0.81295  0.79034  1.0000
  C  Sn222     1.0  0.29955  0.83082  0.66675  1.0000
  C  Sn223     1.0  0.32590  0.85366  0.63404  1.0000
  C   C148      1.0  0.34900  0.85816  0.72568  1.0000
  C  Sn224     1.0  0.34633  0.84031  0.84932  1.0000
  O  Te221     1.0  0.30980  0.80414  0.00499  1.0000
  O  Te222     1.0  0.27614  0.82589  0.57676  1.0000
  O  Te223     1.0  0.32905  0.87179  0.51096  1.0000
  O  Te224     1.0  0.36972  0.84523  0.93926  1.0000
  Mg  Mg111     1.0  0.29101  0.85640  0.42181  1.0000
  Mg  Mg112     1.0  0.34787  0.81953  0.09418  1.0000
  C  Sn225     1.0  0.94723  0.44939  0.88583  1.0000
  C   C149      1.0  0.97117  0.45709  0.80747  1.0000
  C  Sn226     1.0  0.97051  0.44133  0.68735  1.0000
  C  Sn227     1.0  0.94541  0.41739  0.64459  1.0000
  C   C150      1.0  0.92149  0.40970  0.72291  1.0000
  C  Sn228     1.0  0.92212  0.42545  0.84307  1.0000
  O  Te225     1.0  0.94135  0.47025  0.00554  1.0000
  O  Te226     1.0  0.99471  0.44943  0.61075  1.0000
  O  Te227     1.0  0.94429  0.40132  0.52477  1.0000
  O  Te228     1.0  0.89794  0.41736  0.91963  1.0000
  Mg  Mg113     1.0  0.98271  0.42081  0.45524  1.0000
  Mg  Mg114     1.0  0.90291  0.45076  0.07509  1.0000
  C  Sn229     1.0  0.03274  0.46607  0.88313  1.0000
  C   C151      1.0  0.02821  0.48552  0.80005  1.0000
  C  Sn230     1.0  0.04496  0.50071  0.67904  1.0000
  C  Sn231     1.0  0.06668  0.49636  0.64018  1.0000
  C   C152      1.0  0.07121  0.47692  0.72321  1.0000
  C  Sn232     1.0  0.05447  0.46172  0.84427  1.0000
  O  Te229     1.0  0.00874  0.45592  0.00365  1.0000
  O  Te230     1.0  0.04003  0.52004  0.59769  1.0000
  O  Te231     1.0  0.08369  0.51133  0.51955  1.0000
  O  Te232     1.0  0.05939  0.44240  0.92557  1.0000
  Mg  Mg115     1.0  0.06877  0.53532  0.44292  1.0000
  Mg  Mg116     1.0  0.02364  0.43190  0.08031  1.0000
  C  Sn233     1.0  0.84366  0.29228  0.83577  1.0000
  C   C153      1.0  0.81855  0.28992  0.78245  1.0000
  C  Sn234     1.0  0.81814  0.31096  0.69149  1.0000
  C  Sn235     1.0  0.84336  0.33487  0.65294  1.0000
  C   C154      1.0  0.86845  0.33722  0.70622  1.0000
  C  Sn236     1.0  0.86888  0.31619  0.79721  1.0000
  O  Te233     1.0  0.84357  0.27098  0.92654  1.0000
  O  Te234     1.0  0.79278  0.30814  0.63959  1.0000
  O  Te235     1.0  0.84343  0.35618  0.56209  1.0000
  O  Te236     1.0  0.89422  0.31900  0.84908  1.0000
  Mg  Mg117     1.0  0.80364  0.34274  0.51904  1.0000
  Mg  Mg118     1.0  0.88338  0.28441  0.96957  1.0000
  C  Sn237     1.0  0.17753  0.51785  0.79841  1.0000
  C   C155      1.0  0.15067  0.49975  0.74377  1.0000
  C  Sn238     1.0  0.14280  0.47261  0.71018  1.0000
  C  Sn239     1.0  0.16218  0.46336  0.73175  1.0000
  C   C156      1.0  0.18902  0.48144  0.78639  1.0000
  C  Sn240     1.0  0.19691  0.50859  0.81998  1.0000
  O  Te237     1.0  0.18495  0.54489  0.83125  1.0000
  O  Te238     1.0  0.11582  0.45490  0.65564  1.0000
  O  Te239     1.0  0.15474  0.43629  0.69886  1.0000
  O  Te240     1.0  0.22386  0.52629  0.87452  1.0000
  Mg  Mg119     1.0  0.11558  0.41995  0.62726  1.0000
  Mg  Mg120     1.0  0.22412  0.56124  0.90301  1.0000
