data_image0
_chemical_formula_structural       C19H12N2C21H14N2C17H12N2C13H8N2C21H14N2C17H12N2C15H10N2C9H6N2C15H10N2C27H18N2C21H14N2C21H14N2C2Sn2C2HTe2HMgC2Sn2C2HTe2HMgC2Sn2C2HTe2HMgC2Sn2C2HTe2HMgC2Sn2C2HTe2HMgC2Sn2C2HTe2HMgC2Sn2C2HTe2HMgC2Sn2C2HTe2HMgC2Sn2C2HTe2HMgC2Sn2C2HTe2HMgC2Sn2C2HTe2HMgC2Sn2C2HTe2HMgC2Sn2C2HTe2HMgC2Sn2C2HTe2HMgC2Sn2C2HTe2HMgC2Sn2C2HTe2HMgC2Sn2C2HTe2HMgC2Sn2C2HTe2HMgC2Sn2C2HTe2HMgC2Sn2C2HTe2HMgC2Sn2C2HTe2HMgC2Sn2C2HTe2HMgC2Sn2C2HTe2HMgC2Sn2C2HTe2HMgC2Sn2C2HTe2HMgC2Sn2C2HTe2HMgC2Sn2C2HTe2HMgC2Sn2C2HTe2HMgC2Sn2C2HTe2HMgC2Sn2C2HTe2HMg
_chemical_formula_sum              "C336 H204 N24 Sn60 Te60 Mg30"
_cell_length_a       55.989
_cell_length_b       56.0161
_cell_length_c       8.7673
_cell_angle_alpha    86.9538
_cell_angle_beta     93.449
_cell_angle_gamma    120.145

_symmetry_space_group_name_H-M    'P1'
_space_group_IT_number       1

loop_
  _space_group_symop_operation_xyz
  'x, y, z'

loop_
  _atom_site_type_symbol
  _atom_site_label
  _atom_site_symmetry_multiplicity
  _atom_site_fract_x
  _atom_site_fract_y
  _atom_site_fract_z
  _atom_site_occupancy
  C   C1        1.0  0.48800  0.48772  0.25678  1.0000
  C   C2        1.0  0.46152  0.48765  0.26530  1.0000
  C   C3        1.0  0.43757  0.46847  0.18346  1.0000
  C   C4        1.0  0.41270  0.46835  0.18936  1.0000
  C   C5        1.0  0.41104  0.48803  0.27473  1.0000
  C   C6        1.0  0.43483  0.50720  0.35752  1.0000
  C   C7        1.0  0.45906  0.50628  0.35523  1.0000
  C   C8        1.0  0.36341  0.46876  0.29073  1.0000
  C   C9        1.0  0.33808  0.47021  0.27497  1.0000
  C   C10       1.0  0.31279  0.44760  0.31980  1.0000
  C   C11       1.0  0.28877  0.44932  0.31220  1.0000
  C   C12       1.0  0.28910  0.47354  0.25697  1.0000
  C   C13       1.0  0.31433  0.49568  0.20582  1.0000
  C   C14       1.0  0.33835  0.49419  0.21555  1.0000
  C   C15       1.0  0.49275  0.37427  0.29052  1.0000
  C   C16       1.0  0.48063  0.26594  0.27373  1.0000
  C   C17       1.0  0.50332  0.26231  0.25338  1.0000
  C   C18       1.0  0.45452  0.24205  0.28793  1.0000
  C   C19       1.0  0.50003  0.23607  0.24675  1.0000
  H   H1        1.0  0.47721  0.52080  0.42036  1.0000
  H   H2        1.0  0.43870  0.45387  0.11156  1.0000
  H   H3        1.0  0.39480  0.45409  0.12028  1.0000
  H   H4        1.0  0.43349  0.52197  0.42695  1.0000
  H   H5        1.0  0.36119  0.44847  0.32198  1.0000
  H   H6        1.0  0.31224  0.42885  0.36483  1.0000
  H   H7        1.0  0.26970  0.43206  0.35410  1.0000
  H   H8        1.0  0.31476  0.51405  0.15535  1.0000
  H   H9        1.0  0.35777  0.51129  0.17639  1.0000
  H   H10       1.0  0.51346  0.39144  0.32145  1.0000
  H   H11       1.0  0.52373  0.28036  0.24047  1.0000
  H   H12       1.0  0.43669  0.24424  0.30676  1.0000
  N   N1        1.0  0.38737  0.49041  0.27284  1.0000
  N   N2        1.0  0.47201  0.37817  0.26401  1.0000
  C   C20       1.0  0.51211  0.99952  0.26282  1.0000
  C   C21       1.0  0.51171  0.97265  0.27074  1.0000
  C   C22       1.0  0.53138  0.96965  0.19343  1.0000
  C   C23       1.0  0.53091  0.94455  0.19173  1.0000
  C   C24       1.0  0.51014  0.92094  0.26599  1.0000
  C   C25       1.0  0.49072  0.92377  0.34668  1.0000
  C   C26       1.0  0.49209  0.94913  0.35164  1.0000
  C   C27       1.0  0.54047  0.02408  0.26025  1.0000
  C   C28       1.0  0.56258  0.02393  0.34582  1.0000
  C   C29       1.0  0.58931  0.04644  0.34552  1.0000
  C   C30       1.0  0.59501  0.07067  0.26120  1.0000
  C   C31       1.0  0.57328  0.07117  0.17457  1.0000
  C   C32       1.0  0.54690  0.04823  0.17351  1.0000
  C   C33       1.0  0.52810  0.89124  0.27908  1.0000
  C   C34       1.0  0.52013  0.78460  0.25065  1.0000
  C   C35       1.0  0.62673  0.11710  0.29433  1.0000
  C   C36       1.0  0.73357  0.21521  0.24332  1.0000
  C   C37       1.0  0.73668  0.24171  0.24868  1.0000
  C   C38       1.0  0.75764  0.21345  0.23399  1.0000
  C   C39       1.0  0.76269  0.26534  0.24666  1.0000
  C   C40       1.0  0.54366  0.78160  0.26905  1.0000
  H   H13       1.0  0.47708  0.95081  0.41567  1.0000
  H   H14       1.0  0.54705  0.98730  0.13059  1.0000
  H   H15       1.0  0.54562  0.94273  0.12467  1.0000
  H   H16       1.0  0.47515  0.90591  0.40891  1.0000
  H   H17       1.0  0.55859  0.00561  0.41389  1.0000
  H   H18       1.0  0.60583  0.04595  0.41487  1.0000
  H   H19       1.0  0.57759  0.08937  0.10415  1.0000
  H   H20       1.0  0.53047  0.04927  0.10785  1.0000
  H   H21       1.0  0.54837  0.90827  0.31754  1.0000
  H   H22       1.0  0.61058  0.11999  0.34158  1.0000
  H   H23       1.0  0.71839  0.24369  0.25406  1.0000
  H   H24       1.0  0.75579  0.19320  0.22990  1.0000
  H   H25       1.0  0.47560  0.76171  0.22040  1.0000
  H   H26       1.0  0.56398  0.79987  0.28202  1.0000
  N   N3        1.0  0.50700  0.89465  0.25584  1.0000
  N   N4        1.0  0.62200  0.09307  0.25776  1.0000
  C   C41       1.0  0.00186  0.51256  0.25120  1.0000
  C   C42       1.0  0.10781  0.63803  0.28155  1.0000
  C   C43       1.0  0.13445  0.66346  0.27017  1.0000
  C   C44       1.0  0.13892  0.68777  0.33627  1.0000
  C   C45       1.0  0.16475  0.71165  0.33268  1.0000
  C   C46       1.0  0.18679  0.71222  0.26003  1.0000
  C   C47       1.0  0.18191  0.68790  0.19070  1.0000
  C   C48       1.0  0.15635  0.66393  0.19644  1.0000
  C   C49       1.0  0.21435  0.73723  0.25832  1.0000
  C   C50       1.0  0.88319  0.50782  0.26996  1.0000
  C   C51       1.0  0.85888  0.51122  0.26081  1.0000
  C   C52       1.0  0.83493  0.49217  0.33715  1.0000
  C   C53       1.0  0.81185  0.49549  0.33324  1.0000
  C   C54       1.0  0.81178  0.51773  0.25097  1.0000
  C   C55       1.0  0.83576  0.53665  0.17363  1.0000
  C   C56       1.0  0.85891  0.53352  0.17844  1.0000
  C   C57       1.0  0.21777  0.76390  0.25859  1.0000
  H   H27       1.0  0.09020  0.63991  0.31504  1.0000
  H   H28       1.0  0.12233  0.68754  0.39627  1.0000
  H   H29       1.0  0.16823  0.72977  0.39194  1.0000
  H   H30       1.0  0.19832  0.68815  0.12895  1.0000
  H   H31       1.0  0.15263  0.64522  0.14293  1.0000
  H   H32       1.0  0.87986  0.48754  0.31231  1.0000
  H   H33       1.0  0.83475  0.47504  0.40315  1.0000
  H   H34       1.0  0.79387  0.48122  0.39766  1.0000
  H   H35       1.0  0.83578  0.55350  0.10578  1.0000
  H   H36       1.0  0.87726  0.54790  0.11703  1.0000
  H   H37       1.0  0.23640  0.71480  0.26012  1.0000
  H   H38       1.0  0.19964  0.76630  0.25753  1.0000
  N   N5        1.0  0.10526  0.61431  0.25797  1.0000
  N   N6        1.0  0.90739  0.52767  0.23505  1.0000
  C   C58       1.0  0.51365  0.51180  0.25532  1.0000
  C   C59       1.0  0.54028  0.51176  0.26046  1.0000
  C   C60       1.0  0.56248  0.53159  0.17450  1.0000
  C   C61       1.0  0.58740  0.53170  0.17205  1.0000
  C   C62       1.0  0.59099  0.51146  0.25481  1.0000
  C   C63       1.0  0.56916  0.49173  0.34305  1.0000
  C   C64       1.0  0.54481  0.49242  0.34761  1.0000
  C   C65       1.0  0.63864  0.53022  0.27944  1.0000
  C   C66       1.0  0.50759  0.62444  0.28242  1.0000
  C   C67       1.0  0.51565  0.73149  0.25467  1.0000
  C   C68       1.0  0.49212  0.73444  0.23596  1.0000
  C   C69       1.0  0.54152  0.75574  0.27053  1.0000
  C   C70       1.0  0.49430  0.76032  0.23341  1.0000
  H   H39       1.0  0.52837  0.47702  0.41661  1.0000
  H   H40       1.0  0.55990  0.54693  0.10589  1.0000
  H   H41       1.0  0.60371  0.54650  0.09927  1.0000
  H   H42       1.0  0.57191  0.47637  0.41048  1.0000
  H   H43       1.0  0.64051  0.54873  0.32945  1.0000
  H   H44       1.0  0.48748  0.60691  0.31534  1.0000
  H   H45       1.0  0.47188  0.71610  0.22155  1.0000
  H   H46       1.0  0.56010  0.75416  0.28700  1.0000
  N   N7        1.0  0.61478  0.50945  0.24412  1.0000
  N   N8        1.0  0.52819  0.62106  0.25722  1.0000
  C   C71       1.0  0.48824  0.00142  0.25624  1.0000
  C   C72       1.0  0.46755  0.10611  0.27280  1.0000
  C   C73       1.0  0.46812  0.13250  0.26025  1.0000
  C   C74       1.0  0.44872  0.13599  0.33609  1.0000
  C   C75       1.0  0.45029  0.16161  0.33536  1.0000
  C   C76       1.0  0.47096  0.18449  0.25554  1.0000
  C   C77       1.0  0.48951  0.18040  0.17353  1.0000
  C   C78       1.0  0.48837  0.15506  0.17684  1.0000
  C   C79       1.0  0.47391  0.21214  0.26021  1.0000
  C   C80       1.0  0.37580  0.88309  0.26517  1.0000
  C   C81       1.0  0.34855  0.85828  0.26018  1.0000
  C   C82       1.0  0.34497  0.83325  0.32510  1.0000
  C   C83       1.0  0.31889  0.80969  0.32674  1.0000
  C   C84       1.0  0.29564  0.81010  0.25906  1.0000
  C   C85       1.0  0.29958  0.83517  0.19100  1.0000
  C   C86       1.0  0.32541  0.85888  0.19274  1.0000
  C   C87       1.0  0.26798  0.78520  0.25865  1.0000
  C   C88       1.0  0.26454  0.75852  0.25841  1.0000
  C   C89       1.0  0.24394  0.78728  0.25858  1.0000
  C   C90       1.0  0.23838  0.73515  0.25810  1.0000
  C   C91       1.0  0.45122  0.21579  0.28129  1.0000
  H   H47       1.0  0.44853  0.08819  0.31491  1.0000
  H   H48       1.0  0.43303  0.11872  0.40157  1.0000
  H   H49       1.0  0.43601  0.16412  0.40234  1.0000
  H   H50       1.0  0.50472  0.19734  0.10442  1.0000
  H   H51       1.0  0.50291  0.15214  0.11460  1.0000
  H   H52       1.0  0.39366  0.88010  0.28974  1.0000
  H   H53       1.0  0.36273  0.83270  0.37908  1.0000
  H   H54       1.0  0.31628  0.79093  0.38482  1.0000
  H   H55       1.0  0.28214  0.83577  0.13328  1.0000
  H   H56       1.0  0.32841  0.87819  0.14024  1.0000
  H   H57       1.0  0.28261  0.75608  0.25708  1.0000
  H   H58       1.0  0.24589  0.80759  0.26059  1.0000
  H   H59       1.0  0.51809  0.23403  0.23280  1.0000
  H   H60       1.0  0.43071  0.19777  0.29104  1.0000
  N   N9        1.0  0.48871  0.10411  0.24255  1.0000
  N   N10       1.0  0.37889  0.90749  0.24627  1.0000
  C   C92       1.0  0.00093  0.48725  0.25369  1.0000
  C   C93       1.0  0.89342  0.36262  0.27520  1.0000
  C   C94       1.0  0.86657  0.33739  0.25936  1.0000
  C   C95       1.0  0.86202  0.31339  0.34221  1.0000
  C   C96       1.0  0.83625  0.28944  0.33587  1.0000
  C   C97       1.0  0.81431  0.28866  0.24502  1.0000
  C   C98       1.0  0.81921  0.31263  0.15928  1.0000
  C   C99       1.0  0.84486  0.33661  0.16599  1.0000
  C   C100      1.0  0.78677  0.26351  0.24112  1.0000
  C   C101      1.0  0.11878  0.49105  0.28416  1.0000
  C   C102      1.0  0.14343  0.48873  0.27353  1.0000
  C   C103      1.0  0.16813  0.50728  0.35126  1.0000
  C   C104      1.0  0.19155  0.50473  0.34676  1.0000
  C   C105      1.0  0.19127  0.48401  0.26134  1.0000
  C   C106      1.0  0.16658  0.46587  0.18075  1.0000
  C   C107      1.0  0.14302  0.46801  0.18749  1.0000
  C   C108      1.0  0.78370  0.23707  0.23442  1.0000
  H   H61       1.0  0.91059  0.36017  0.32523  1.0000
  H   H62       1.0  0.87863  0.31396  0.41608  1.0000
  H   H63       1.0  0.83270  0.27138  0.40551  1.0000
  H   H64       1.0  0.80270  0.31203  0.08460  1.0000
  H   H65       1.0  0.84868  0.35502  0.09888  1.0000
  H   H66       1.0  0.12198  0.51072  0.32535  1.0000
  H   H67       1.0  0.16864  0.52326  0.41910  1.0000
  H   H68       1.0  0.21008  0.51842  0.41348  1.0000
  H   H69       1.0  0.16622  0.45047  0.10875  1.0000
  H   H70       1.0  0.12408  0.45417  0.12426  1.0000
  H   H71       1.0  0.76463  0.28560  0.25288  1.0000
  H   H72       1.0  0.80202  0.23514  0.22857  1.0000
  N   N11       1.0  0.89679  0.38665  0.23813  1.0000
  N   N12       1.0  0.09432  0.47102  0.25017  1.0000
  C   C109      1.0  0.48700  0.48784  0.75480  1.0000
  C   C110      1.0  0.48374  0.45977  0.75121  1.0000
  C   C111      1.0  0.46237  0.43745  0.83193  1.0000
  C   C112      1.0  0.45806  0.41078  0.82945  1.0000
  C   C113      1.0  0.47599  0.40539  0.75122  1.0000
  C   C114      1.0  0.49739  0.42733  0.67013  1.0000
  C   C115      1.0  0.50058  0.45360  0.66819  1.0000
  C   C116      1.0  0.36187  0.46818  0.79850  1.0000
  C   C117      1.0  0.49109  0.37358  0.78633  1.0000
  C   C118      1.0  0.48796  0.34620  0.77494  1.0000
  C   C119      1.0  0.50691  0.33996  0.85326  1.0000
  C   C120      1.0  0.50407  0.31390  0.84422  1.0000
  C   C121      1.0  0.48253  0.29341  0.75452  1.0000
  C   C122      1.0  0.46373  0.29989  0.67541  1.0000
  C   C123      1.0  0.46629  0.32574  0.68571  1.0000
  H   H73       1.0  0.44893  0.44126  0.89854  1.0000
  H   H74       1.0  0.44159  0.39403  0.89345  1.0000
  H   H75       1.0  0.51057  0.42322  0.60273  1.0000
  H   H76       1.0  0.51687  0.47004  0.60297  1.0000
  H   H77       1.0  0.36069  0.44983  0.85837  1.0000
  H   H78       1.0  0.51129  0.38998  0.83009  1.0000
  H   H79       1.0  0.52354  0.35551  0.92428  1.0000
  H   H80       1.0  0.51825  0.30899  0.90975  1.0000
  H   H81       1.0  0.44752  0.28468  0.60125  1.0000
  H   H82       1.0  0.45206  0.33087  0.62257  1.0000
  N   N13       1.0  0.38486  0.48820  0.75084  1.0000
  N   N14       1.0  0.47119  0.37836  0.74962  1.0000
  C   C124      1.0  0.51272  0.99962  0.76467  1.0000
  C   C125      1.0  0.54100  0.02423  0.76375  1.0000
  C   C126      1.0  0.56282  0.02425  0.85359  1.0000
  C   C127      1.0  0.58946  0.04692  0.85533  1.0000
  C   C128      1.0  0.59530  0.07112  0.76992  1.0000
  C   C129      1.0  0.57399  0.07102  0.67541  1.0000
  C   C130      1.0  0.54773  0.04795  0.67232  1.0000
  C   C131      1.0  0.52877  0.89180  0.78151  1.0000
  C   C132      1.0  0.62545  0.11835  0.77989  1.0000
  H   H83       1.0  0.55863  0.00603  0.92326  1.0000
  H   H84       1.0  0.60588  0.04670  0.92712  1.0000
  H   H85       1.0  0.57846  0.08872  0.60003  1.0000
  H   H86       1.0  0.53161  0.04834  0.59996  1.0000
  H   H87       1.0  0.54671  0.90737  0.84796  1.0000
  H   H88       1.0  0.60790  0.12165  0.79334  1.0000
  N   N15       1.0  0.50945  0.89636  0.72872  1.0000
  N   N16       1.0  0.62209  0.09379  0.77559  1.0000
  C   C133      1.0  0.00057  0.51342  0.75043  1.0000
  C   C134      1.0  0.97575  0.51679  0.74342  1.0000
  C   C135      1.0  0.97580  0.53713  0.83225  1.0000
  C   C136      1.0  0.95320  0.54105  0.83372  1.0000
  C   C137      1.0  0.92879  0.52388  0.74886  1.0000
  C   C138      1.0  0.92867  0.50410  0.65563  1.0000
  C   C139      1.0  0.95179  0.50107  0.65209  1.0000
  C   C140      1.0  0.10716  0.63837  0.77450  1.0000
  C   C141      1.0  0.13390  0.66351  0.75897  1.0000
  C   C142      1.0  0.13881  0.68810  0.82325  1.0000
  C   C143      1.0  0.16472  0.71183  0.81608  1.0000
  C   C144      1.0  0.18632  0.71175  0.74222  1.0000
  C   C145      1.0  0.18098  0.68718  0.67434  1.0000
  C   C146      1.0  0.15529  0.66342  0.68286  1.0000
  C   C147      1.0  0.88187  0.50683  0.77674  1.0000
  H   H89       1.0  0.99407  0.54994  0.90287  1.0000
  H   H90       1.0  0.95366  0.55649  0.90584  1.0000
  H   H91       1.0  0.91065  0.49188  0.58154  1.0000
  H   H92       1.0  0.95108  0.48584  0.57809  1.0000
  H   H93       1.0  0.08978  0.64079  0.80648  1.0000
  H   H94       1.0  0.12245  0.68818  0.88406  1.0000
  H   H95       1.0  0.16859  0.73035  0.87246  1.0000
  H   H96       1.0  0.19707  0.68724  0.61042  1.0000
  H   H97       1.0  0.15102  0.64454  0.62905  1.0000
  H   H98       1.0  0.87893  0.48612  0.80397  1.0000
  N   N17       1.0  0.10429  0.61439  0.75562  1.0000
  N   N18       1.0  0.90609  0.52782  0.75411  1.0000
  C   C148      1.0  0.51230  0.51232  0.75436  1.0000
  C   C149      1.0  0.53927  0.51288  0.76063  1.0000
  C   C150      1.0  0.56124  0.53239  0.67211  1.0000
  C   C151      1.0  0.58634  0.53284  0.67100  1.0000
  C   C152      1.0  0.59044  0.51333  0.75878  1.0000
  C   C153      1.0  0.56878  0.49391  0.84933  1.0000
  C   C154      1.0  0.54427  0.49433  0.85205  1.0000
  C   C155      1.0  0.51548  0.54047  0.74857  1.0000
  C   C156      1.0  0.53808  0.56213  0.82788  1.0000
  C   C157      1.0  0.54244  0.58886  0.82505  1.0000
  C   C158      1.0  0.52378  0.59522  0.74446  1.0000
  C   C159      1.0  0.50127  0.57400  0.66350  1.0000
  C   C160      1.0  0.49748  0.54751  0.66559  1.0000
  C   C161      1.0  0.63852  0.53306  0.76181  1.0000
  C   C162      1.0  0.66355  0.53133  0.75014  1.0000
  C   C163      1.0  0.68921  0.55260  0.80565  1.0000
  C   C164      1.0  0.71278  0.55014  0.80668  1.0000
  C   C165      1.0  0.71185  0.52676  0.74787  1.0000
  C   C166      1.0  0.68623  0.50609  0.68601  1.0000
  C   C167      1.0  0.66256  0.50814  0.68846  1.0000
  C   C168      1.0  0.50834  0.62626  0.76416  1.0000
  C   C169      1.0  0.51083  0.65349  0.75030  1.0000
  C   C170      1.0  0.48983  0.65722  0.80452  1.0000
  C   C171      1.0  0.49169  0.68299  0.79442  1.0000
  C   C172      1.0  0.51455  0.70588  0.72830  1.0000
  C   C173      1.0  0.53543  0.70195  0.67266  1.0000
  C   C174      1.0  0.53372  0.67632  0.68369  1.0000
  H   H99       1.0  0.52795  0.47930  0.92278  1.0000
  H   H100      1.0  0.55829  0.54727  0.60133  1.0000
  H   H101      1.0  0.60245  0.54746  0.59637  1.0000
  H   H102      1.0  0.57191  0.47916  0.92062  1.0000
  H   H103      1.0  0.55265  0.55775  0.89263  1.0000
  H   H104      1.0  0.55980  0.60499  0.88906  1.0000
  H   H105      1.0  0.48726  0.57873  0.59469  1.0000
  H   H106      1.0  0.47967  0.53175  0.60387  1.0000
  H   H107      1.0  0.64138  0.55358  0.78242  1.0000
  H   H108      1.0  0.69040  0.57071  0.85373  1.0000
  H   H109      1.0  0.73199  0.56615  0.85838  1.0000
  H   H110      1.0  0.68509  0.48848  0.63210  1.0000
  H   H111      1.0  0.64290  0.49213  0.64078  1.0000
  H   H112      1.0  0.48806  0.60905  0.79743  1.0000
  H   H113      1.0  0.47230  0.63977  0.85861  1.0000
  H   H114      1.0  0.47579  0.68573  0.84239  1.0000
  H   H115      1.0  0.55279  0.71924  0.61687  1.0000
  H   H116      1.0  0.54975  0.67329  0.63977  1.0000
  N   N19       1.0  0.61428  0.51130  0.75432  1.0000
  N   N20       1.0  0.52866  0.62229  0.74196  1.0000
  C   C175      1.0  0.48868  0.00118  0.75740  1.0000
  C   C176      1.0  0.48873  0.02783  0.75811  1.0000
  C   C177      1.0  0.46930  0.03178  0.66718  1.0000
  C   C178      1.0  0.46895  0.05649  0.66566  1.0000
  C   C179      1.0  0.48874  0.07879  0.75273  1.0000
  C   C180      1.0  0.50835  0.07518  0.84369  1.0000
  C   C181      1.0  0.50768  0.05008  0.84809  1.0000
  C   C182      1.0  0.46916  0.10691  0.76033  1.0000
  C   C183      1.0  0.47033  0.13358  0.74611  1.0000
  C   C184      1.0  0.44910  0.13653  0.80409  1.0000
  C   C185      1.0  0.45052  0.16210  0.79953  1.0000
  C   C186      1.0  0.47293  0.18554  0.73360  1.0000
  C   C187      1.0  0.49365  0.18215  0.67061  1.0000
  C   C188      1.0  0.49259  0.15682  0.67783  1.0000
  C   C189      1.0  0.37435  0.88346  0.77701  1.0000
  C   C190      1.0  0.34721  0.85854  0.76212  1.0000
  C   C191      1.0  0.34212  0.83452  0.84702  1.0000
  C   C192      1.0  0.31632  0.81064  0.83860  1.0000
  C   C193      1.0  0.29487  0.80979  0.74235  1.0000
  C   C194      1.0  0.30031  0.83371  0.65438  1.0000
  C   C195      1.0  0.32590  0.85775  0.66472  1.0000
  H   H117      1.0  0.52271  0.04754  0.91944  1.0000
  H   H118      1.0  0.45434  0.01519  0.59518  1.0000
  H   H119      1.0  0.45422  0.05919  0.59079  1.0000
  H   H120      1.0  0.52342  0.09210  0.91368  1.0000
  H   H121      1.0  0.44905  0.08887  0.78847  1.0000
  H   H122      1.0  0.43188  0.11871  0.85787  1.0000
  H   H123      1.0  0.43459  0.16419  0.85223  1.0000
  H   H124      1.0  0.51044  0.19962  0.61230  1.0000
  H   H125      1.0  0.50860  0.15435  0.62905  1.0000
  H   H126      1.0  0.39135  0.88026  0.82254  1.0000
  H   H127      1.0  0.35835  0.83498  0.92392  1.0000
  H   H128      1.0  0.31235  0.79271  0.91073  1.0000
  H   H129      1.0  0.28436  0.83303  0.57438  1.0000
  H   H130      1.0  0.33005  0.87607  0.59566  1.0000
  N   N21       1.0  0.49079  0.10474  0.74627  1.0000
  N   N22       1.0  0.37843  0.90787  0.74190  1.0000
  C   C196      1.0  0.99943  0.48803  0.75413  1.0000
  C   C197      1.0  0.97306  0.46120  0.75893  1.0000
  C   C198      1.0  0.96992  0.43870  0.67738  1.0000
  C   C199      1.0  0.94556  0.41329  0.67778  1.0000
  C   C200      1.0  0.92283  0.40949  0.75829  1.0000
  C   C201      1.0  0.92571  0.43181  0.84024  1.0000
  C   C202      1.0  0.95041  0.45669  0.84267  1.0000
  C   C203      1.0  0.02437  0.48484  0.75404  1.0000
  C   C204      1.0  0.02543  0.46328  0.83966  1.0000
  C   C205      1.0  0.04834  0.45976  0.84151  1.0000
  C   C206      1.0  0.07188  0.47831  0.76040  1.0000
  C   C207      1.0  0.07102  0.49971  0.67267  1.0000
  C   C208      1.0  0.04769  0.50248  0.66953  1.0000
  C   C209      1.0  0.89485  0.36133  0.75622  1.0000
  C   C210      1.0  0.11921  0.49464  0.78536  1.0000
  C   C211      1.0  0.14375  0.49194  0.77644  1.0000
  C   C212      1.0  0.16955  0.51262  0.83438  1.0000
  C   C213      1.0  0.19291  0.50986  0.83161  1.0000
  C   C214      1.0  0.19143  0.48656  0.76816  1.0000
  C   C215      1.0  0.16563  0.46626  0.70650  1.0000
  C   C216      1.0  0.14225  0.46879  0.71102  1.0000
  H   H131      1.0  0.95233  0.47344  0.90823  1.0000
  H   H132      1.0  0.98675  0.44155  0.60886  1.0000
  H   H133      1.0  0.94343  0.39682  0.60768  1.0000
  H   H134      1.0  0.90846  0.42873  0.90589  1.0000
  H   H135      1.0  0.00781  0.44900  0.90616  1.0000
  H   H136      1.0  0.04877  0.44324  0.91037  1.0000
  H   H137      1.0  0.08840  0.51342  0.60265  1.0000
  H   H138      1.0  0.04758  0.51924  0.60318  1.0000
  H   H139      1.0  0.91295  0.35847  0.77119  1.0000
  H   H140      1.0  0.12285  0.51506  0.81586  1.0000
  H   H141      1.0  0.17105  0.53065  0.88541  1.0000
  H   H142      1.0  0.21240  0.52551  0.88289  1.0000
  H   H143      1.0  0.16425  0.44874  0.65029  1.0000
  H   H144      1.0  0.12251  0.45324  0.66173  1.0000
  N   N23       1.0  0.89703  0.38540  0.75479  1.0000
  N   N24       1.0  0.09452  0.47410  0.76261  1.0000
  C   C217      1.0  0.04167  0.45539  0.34855  1.0000
  C   C218      1.0  0.06545  0.46943  0.26348  1.0000
  C  Sn1       1.0  0.07013  0.49251  0.17246  1.0000
  C  Sn2       1.0  0.05061  0.50165  0.16677  1.0000
  C   C219      1.0  0.02689  0.48748  0.25239  1.0000
  C   C220      1.0  0.02241  0.46440  0.34305  1.0000
  H   H145      1.0  0.03821  0.43754  0.41877  1.0000
  O  Te1       1.0  0.09399  0.50629  0.08814  1.0000
  O  Te2       1.0  0.05477  0.52466  0.07679  1.0000
  H   H146      1.0  0.00401  0.45355  0.40899  1.0000
  Mg  Mg1       1.0  0.09746  0.53177  0.98249  1.0000
  C   C221      1.0  0.31747  0.49327  0.66209  1.0000
  C   C222      1.0  0.29245  0.47659  0.73317  1.0000
  C  Sn3       1.0  0.28984  0.45603  0.83968  1.0000
  C  Sn4       1.0  0.31274  0.45217  0.87547  1.0000
  C   C223      1.0  0.33770  0.46898  0.80380  1.0000
  C   C224      1.0  0.34008  0.48948  0.69737  1.0000
  H   H147      1.0  0.31932  0.50915  0.57979  1.0000
  O  Te3       1.0  0.26469  0.43954  0.90960  1.0000
  O  Te4       1.0  0.31071  0.43178  0.98153  1.0000
  H   H148      1.0  0.35946  0.50241  0.64242  1.0000
  Mg  Mg2       1.0  0.26509  0.41931  0.04644  1.0000
  C   C225      1.0  0.97429  0.54198  0.32746  1.0000
  C   C226      1.0  0.97668  0.52052  0.26970  1.0000
  C  Sn5       1.0  0.95491  0.50015  0.18282  1.0000
  C  Sn6       1.0  0.93032  0.50133  0.15338  1.0000
  C   C227      1.0  0.92815  0.52289  0.21159  1.0000
  C   C228      1.0  0.95006  0.54317  0.29843  1.0000
  H   H149      1.0  0.99125  0.55768  0.39458  1.0000
  O  Te5       1.0  0.95764  0.47885  0.12602  1.0000
  O  Te6       1.0  0.90825  0.48124  0.06685  1.0000
  H   H150      1.0  0.94821  0.55979  0.34306  1.0000
  Mg  Mg3       1.0  0.92185  0.45631  0.01428  1.0000
  C   C229      1.0  0.43146  0.97282  0.34354  1.0000
  C   C230      1.0  0.45507  0.97662  0.27506  1.0000
  C  Sn7       1.0  0.45332  0.95679  0.17783  1.0000
  C  Sn8       1.0  0.42742  0.93273  0.14880  1.0000
  C   C231      1.0  0.40391  0.92913  0.21778  1.0000
  C   C232      1.0  0.40590  0.94910  0.31493  1.0000
  H   H151      1.0  0.43299  0.98828  0.41864  1.0000
  O  Te7       1.0  0.47711  0.96090  0.11040  1.0000
  O  Te8       1.0  0.42508  0.91258  0.05205  1.0000
  H   H152      1.0  0.38761  0.94616  0.36785  1.0000
  Mg  Mg4       1.0  0.47041  0.92275  0.98711  1.0000
  C   C233      1.0  0.74004  0.49583  0.22164  1.0000
  C   C234      1.0  0.73794  0.51920  0.24444  1.0000
  C  Sn9       1.0  0.76177  0.54501  0.26095  1.0000
  C  Sn10      1.0  0.78814  0.54739  0.25443  1.0000
  C   C235      1.0  0.79001  0.52388  0.23148  1.0000
  C   C236      1.0  0.76604  0.49816  0.21514  1.0000
  H   H153      1.0  0.72149  0.47593  0.20892  1.0000
  O  Te9       1.0  0.75931  0.56815  0.28370  1.0000
  O  Te10      1.0  0.81229  0.57293  0.27053  1.0000
  H   H154      1.0  0.76767  0.48007  0.19740  1.0000
  Mg  Mg5       1.0  0.79823  0.59846  0.29944  1.0000
  C   C237      1.0  0.26317  0.50656  0.26899  1.0000
  C   C238      1.0  0.26517  0.48268  0.26864  1.0000
  C  Sn11      1.0  0.24136  0.45683  0.25351  1.0000
  C  Sn12      1.0  0.21508  0.45492  0.23845  1.0000
  C   C239      1.0  0.21330  0.47893  0.23883  1.0000
  C   C240      1.0  0.23726  0.50469  0.25408  1.0000
  H   H155      1.0  0.28171  0.52649  0.28071  1.0000
  O  Te11      1.0  0.24373  0.43318  0.25344  1.0000
  O  Te12      1.0  0.19095  0.42935  0.22310  1.0000
  H   H156      1.0  0.23570  0.52318  0.25425  1.0000
  Mg  Mg6       1.0  0.20486  0.40304  0.22947  1.0000
  C   C241      1.0  0.49677  0.55200  0.15335  1.0000
  C   C242      1.0  0.51355  0.54216  0.22052  1.0000
  C  Sn13      1.0  0.53656  0.55919  0.31316  1.0000
  C  Sn14      1.0  0.54283  0.58658  0.33885  1.0000
  C   C243      1.0  0.52590  0.59622  0.27121  1.0000
  C   C244      1.0  0.50293  0.57900  0.17868  1.0000
  H   H157      1.0  0.47898  0.53867  0.08182  1.0000
  O  Te13      1.0  0.55312  0.54903  0.37935  1.0000
  O  Te14      1.0  0.56570  0.60404  0.43099  1.0000
  H   H158      1.0  0.48993  0.58662  0.12676  1.0000
  Mg  Mg7       1.0  0.58202  0.58073  0.49592  1.0000
  C   C245      1.0  0.50252  0.44799  0.15529  1.0000
  C   C246      1.0  0.48687  0.45744  0.22220  1.0000
  C  Sn15      1.0  0.46541  0.43984  0.31710  1.0000
  C  Sn16      1.0  0.45955  0.41228  0.34537  1.0000
  C   C247      1.0  0.47535  0.40303  0.27797  1.0000
  C   C248      1.0  0.49677  0.42081  0.18315  1.0000
  H   H159      1.0  0.51911  0.46175  0.08198  1.0000
  O  Te15      1.0  0.44997  0.44961  0.38299  1.0000
  O  Te16      1.0  0.43822  0.39425  0.43980  1.0000
  H   H160      1.0  0.50890  0.41350  0.13144  1.0000
  Mg  Mg8       1.0  0.42301  0.41719  0.50330  1.0000
  C   C249      1.0  0.68226  0.50741  0.14664  1.0000
  C   C250      1.0  0.70843  0.52472  0.21267  1.0000
  C  Sn17      1.0  0.71227  0.54483  0.31445  1.0000
  C  Sn18      1.0  0.68943  0.54760  0.35061  1.0000
  C   C251      1.0  0.66333  0.53018  0.28403  1.0000
  C   C252      1.0  0.65973  0.51013  0.18229  1.0000
  H   H161      1.0  0.67947  0.49189  0.06799  1.0000
  O  Te17      1.0  0.73856  0.56195  0.37935  1.0000
  O  Te18      1.0  0.69268  0.56752  0.45202  1.0000
  H   H162      1.0  0.63946  0.49672  0.13126  1.0000
  Mg  Mg9       1.0  0.73255  0.58598  0.51101  1.0000
  C   C253      1.0  0.49877  0.82136  0.17173  1.0000
  C   C254      1.0  0.51797  0.81344  0.22283  1.0000
  C  Sn19      1.0  0.54186  0.83164  0.30602  1.0000
  C  Sn20      1.0  0.54655  0.85823  0.33850  1.0000
  C   C255      1.0  0.52720  0.86595  0.28697  1.0000
  C   C256      1.0  0.50338  0.84758  0.20378  1.0000
  H   H163      1.0  0.48032  0.80714  0.10744  1.0000
  O  Te19      1.0  0.56083  0.82340  0.35616  1.0000
  O  Te20      1.0  0.57024  0.87682  0.42146  1.0000
  H   H164      1.0  0.48850  0.85371  0.16432  1.0000
  Mg  Mg10      1.0  0.59001  0.85605  0.46510  1.0000
  C   C257      1.0  0.46219  0.31779  0.20040  1.0000
  C   C258      1.0  0.48255  0.34119  0.27559  1.0000
  C  Sn21      1.0  0.50528  0.34104  0.34963  1.0000
  C  Sn22      1.0  0.50762  0.31698  0.34815  1.0000
  C   C259      1.0  0.48716  0.29368  0.27251  1.0000
  C   C260      1.0  0.46449  0.29406  0.19883  1.0000
  H   H165      1.0  0.44466  0.31808  0.14331  1.0000
  O  Te21      1.0  0.52542  0.36460  0.42426  1.0000
  O  Te22      1.0  0.53013  0.31627  0.42119  1.0000
  H   H166      1.0  0.44875  0.27594  0.14054  1.0000
  Mg  Mg11      1.0  0.55222  0.35353  0.50743  1.0000
  C   C261      1.0  0.48686  0.67351  0.33831  1.0000
  C   C262      1.0  0.50810  0.69877  0.28355  1.0000
  C  Sn23      1.0  0.53026  0.69996  0.21130  1.0000
  C  Sn24      1.0  0.53111  0.67537  0.19367  1.0000
  C   C263      1.0  0.50976  0.65020  0.24875  1.0000
  C   C264      1.0  0.48769  0.64924  0.32092  1.0000
  H   H167      1.0  0.46978  0.67276  0.39408  1.0000
  O  Te23      1.0  0.55130  0.72537  0.15731  1.0000
  O  Te24      1.0  0.55301  0.67597  0.12185  1.0000
  H   H168      1.0  0.47124  0.62968  0.36322  1.0000
  Mg  Mg12      1.0  0.57679  0.71558  0.06747  1.0000
  C   C265      1.0  0.23554  0.78361  0.71647  1.0000
  C   C266      1.0  0.26146  0.78578  0.74037  1.0000
  C  Sn25      1.0  0.26373  0.76203  0.75502  1.0000
  C  Sn26      1.0  0.23957  0.73565  0.74545  1.0000
  C   C267      1.0  0.21374  0.73369  0.72140  1.0000
  C   C268      1.0  0.21170  0.75759  0.70696  1.0000
  H   H169      1.0  0.23397  0.80210  0.70520  1.0000
  O  Te25      1.0  0.28978  0.76458  0.77892  1.0000
  O  Te26      1.0  0.24124  0.71157  0.75963  1.0000
  H   H170      1.0  0.19163  0.75590  0.68835  1.0000
  Mg  Mg13      1.0  0.28141  0.72573  0.79116  1.0000
  C   C269      1.0  0.05733  0.54735  0.86298  1.0000
  C   C270      1.0  0.03211  0.54142  0.79026  1.0000
  C  Sn27      1.0  0.03034  0.56109  0.69291  1.0000
  C  Sn28      1.0  0.05429  0.58716  0.66809  1.0000
  C   C271      1.0  0.07943  0.59289  0.74130  1.0000
  C   C272      1.0  0.08096  0.57306  0.83852  1.0000
  H   H171      1.0  0.05852  0.53201  0.93813  1.0000
  O  Te27      1.0  0.00498  0.55482  0.62121  1.0000
  O  Te28      1.0  0.05310  0.60720  0.57133  1.0000
  H   H172      1.0  0.10049  0.57766  0.89473  1.0000
  Mg  Mg14      1.0  0.01382  0.58891  0.49970  1.0000
  C   C273      1.0  0.69484  0.15865  0.16458  1.0000
  C   C274      1.0  0.70440  0.18479  0.22304  1.0000
  C  Sn29      1.0  0.68815  0.18914  0.32032  1.0000
  C  Sn30      1.0  0.66186  0.16686  0.35963  1.0000
  C   C275      1.0  0.65249  0.14078  0.30063  1.0000
  C   C276      1.0  0.66892  0.13666  0.20334  1.0000
  H   H173      1.0  0.70755  0.15546  0.08937  1.0000
  O  Te29      1.0  0.69801  0.21539  0.37767  1.0000
  O  Te30      1.0  0.64520  0.17062  0.45667  1.0000
  H   H174      1.0  0.66152  0.11642  0.15817  1.0000
  Mg  Mg15      1.0  0.66770  0.21022  0.50567  1.0000
  C   C277      1.0  0.74413  0.24783  0.82512  1.0000
  C   C278      1.0  0.73401  0.22244  0.75591  1.0000
  C  Sn31      1.0  0.75162  0.21713  0.67587  1.0000
  C  Sn32      1.0  0.77987  0.23766  0.66516  1.0000
  C   C279      1.0  0.78980  0.26299  0.73490  1.0000
  C   C280      1.0  0.77200  0.26808  0.81466  1.0000
  H   H175      1.0  0.73037  0.25176  0.88692  1.0000
  O  Te31      1.0  0.74117  0.19166  0.60736  1.0000
  O  Te32      1.0  0.79793  0.23290  0.58592  1.0000
  H   H176      1.0  0.77985  0.28774  0.86832  1.0000
  Mg  Mg16      1.0  0.77390  0.19495  0.51187  1.0000
  C   C281      1.0  0.50457  0.83901  0.64178  1.0000
  C   C282      1.0  0.52074  0.86005  0.74387  1.0000
  C  Sn33      1.0  0.54023  0.85810  0.84294  1.0000
  C  Sn34      1.0  0.54354  0.83464  0.83943  1.0000
  C   C283      1.0  0.52727  0.81371  0.73679  1.0000
  C   C284      1.0  0.50783  0.81586  0.63820  1.0000
  H   H177      1.0  0.48953  0.84068  0.56543  1.0000
  O  Te33      1.0  0.55621  0.87931  0.94426  1.0000
  O  Te34      1.0  0.56287  0.83217  0.93714  1.0000
  H   H178      1.0  0.49532  0.79958  0.55910  1.0000
  Mg  Mg17      1.0  0.57277  0.87128  0.05486  1.0000
  C   C285      1.0  0.67460  0.18980  0.78636  1.0000
  C   C286      1.0  0.70011  0.19199  0.76294  1.0000
  C  Sn35      1.0  0.70162  0.16847  0.73515  1.0000
  C  Sn36      1.0  0.67711  0.14229  0.73074  1.0000
  C   C287      1.0  0.65170  0.14032  0.75421  1.0000
  C   C288      1.0  0.65042  0.16399  0.78198  1.0000
  H   H179      1.0  0.67360  0.20811  0.80776  1.0000
  O  Te35      1.0  0.72728  0.17103  0.71204  1.0000
  O  Te36      1.0  0.67804  0.11845  0.70314  1.0000
  H   H180      1.0  0.63066  0.16229  0.80001  1.0000
  Mg  Mg18      1.0  0.71790  0.13253  0.67855  1.0000
  C   C289      1.0  0.86015  0.30314  0.80283  1.0000
  C   C290      1.0  0.86794  0.32973  0.74584  1.0000
  C  Sn37      1.0  0.84796  0.33596  0.68584  1.0000
  C  Sn38      1.0  0.81966  0.31514  0.68302  1.0000
  C   C291      1.0  0.81208  0.28861  0.74042  1.0000
  C   C292      1.0  0.83224  0.28260  0.80016  1.0000
  H   H181      1.0  0.87575  0.29849  0.84913  1.0000
  O  Te37      1.0  0.85611  0.36263  0.62932  1.0000
  O  Te38      1.0  0.79927  0.32081  0.62375  1.0000
  H   H182      1.0  0.82620  0.26201  0.84436  1.0000
  Mg  Mg19      1.0  0.82066  0.36026  0.56010  1.0000
  C   C293      1.0  0.73720  0.49286  0.74896  1.0000
  C   C294      1.0  0.73554  0.51674  0.76144  1.0000
  C  Sn39      1.0  0.75957  0.54259  0.76673  1.0000
  C  Sn40      1.0  0.78572  0.54450  0.75934  1.0000
  C   C295      1.0  0.78716  0.52048  0.74675  1.0000
  C   C296      1.0  0.76299  0.49472  0.74160  1.0000
  H   H183      1.0  0.71850  0.47293  0.74488  1.0000
  O  Te39      1.0  0.75754  0.56625  0.77927  1.0000
  O  Te40      1.0  0.81007  0.57007  0.76434  1.0000
  H   H184      1.0  0.76428  0.47623  0.73184  1.0000
  Mg  Mg20      1.0  0.79660  0.59639  0.78190  1.0000
  C   C297      1.0  0.94527  0.45199  0.35927  1.0000
  C   C298      1.0  0.96994  0.45851  0.29237  1.0000
  C  Sn41      1.0  0.97069  0.44014  0.19369  1.0000
  C  Sn42      1.0  0.94626  0.41478  0.16156  1.0000
  C   C299      1.0  0.92168  0.40845  0.22897  1.0000
  C   C300      1.0  0.92116  0.42698  0.32759  1.0000
  H   H185      1.0  0.94487  0.46633  0.43551  1.0000
  O  Te41      1.0  0.99552  0.44698  0.12788  1.0000
  O  Te42      1.0  0.94642  0.39605  0.06330  1.0000
  H   H186      1.0  0.90205  0.42193  0.37929  1.0000
  Mg  Mg21      1.0  0.98530  0.41469  0.00154  1.0000
  C   C301      1.0  0.04911  0.58350  0.15659  1.0000
  C   C302      1.0  0.07335  0.59087  0.24463  1.0000
  C  Sn43      1.0  0.07550  0.57131  0.34107  1.0000
  C  Sn44      1.0  0.05293  0.54387  0.34925  1.0000
  C   C303      1.0  0.02877  0.53669  0.26063  1.0000
  C   C304      1.0  0.02684  0.55644  0.16455  1.0000
  H   H187      1.0  0.04762  0.59877  0.08218  1.0000
  O  Te43      1.0  0.09986  0.57903  0.42829  1.0000
  O  Te44      1.0  0.05452  0.52390  0.44464  1.0000
  H   H188      1.0  0.00808  0.55072  0.09633  1.0000
  Mg  Mg22      1.0  0.09207  0.54444  0.54120  1.0000
  C   C305      1.0  0.44930  0.23415  0.73159  1.0000
  C   C306      1.0  0.47300  0.26002  0.74983  1.0000
  C  Sn45      1.0  0.49919  0.26266  0.75186  1.0000
  C  Sn46      1.0  0.50164  0.23893  0.73525  1.0000
  C   C307      1.0  0.47781  0.21315  0.71695  1.0000
  C   C308      1.0  0.45170  0.21074  0.71513  1.0000
  H   H189      1.0  0.42910  0.23229  0.73009  1.0000
  O  Te45      1.0  0.52264  0.28865  0.77025  1.0000
  O  Te46      1.0  0.52756  0.24098  0.73680  1.0000
  H   H190      1.0  0.43337  0.19072  0.70090  1.0000
  Mg  Mg23      1.0  0.55342  0.28089  0.76501  1.0000
  C   C309      1.0  0.49157  0.75494  0.69010  1.0000
  C   C310      1.0  0.51454  0.78035  0.72841  1.0000
  C  Sn47      1.0  0.54042  0.78263  0.75688  1.0000
  C  Sn48      1.0  0.54329  0.75900  0.74670  1.0000
  C   C311      1.0  0.52018  0.73368  0.70819  1.0000
  C   C312      1.0  0.49438  0.73163  0.67997  1.0000
  H   H191      1.0  0.47161  0.75336  0.66819  1.0000
  O  Te47      1.0  0.56316  0.80817  0.79507  1.0000
  O  Te48      1.0  0.56892  0.76070  0.77453  1.0000
  H   H192      1.0  0.47660  0.71196  0.65022  1.0000
  Mg  Mg24      1.0  0.59377  0.80005  0.82269  1.0000
  C   C313      1.0  0.84146  0.53869  0.69460  1.0000
  C   C314      1.0  0.81472  0.51937  0.73774  1.0000
  C  Sn49      1.0  0.80937  0.49436  0.80902  1.0000
  C  Sn50      1.0  0.83124  0.48864  0.83751  1.0000
  C   C315      1.0  0.85792  0.50811  0.79400  1.0000
  C   C316      1.0  0.86304  0.53307  0.72271  1.0000
  H   H193      1.0  0.84542  0.55802  0.63952  1.0000
  O  Te49      1.0  0.78253  0.47528  0.85133  1.0000
  O  Te50      1.0  0.82647  0.46380  0.90861  1.0000
  H   H194      1.0  0.88375  0.54803  0.68941  1.0000
  Mg  Mg25      1.0  0.78638  0.44436  0.94497  1.0000
  C   C317      1.0  0.51041  0.05786  0.35688  1.0000
  C   C318      1.0  0.49182  0.03290  0.28823  1.0000
  C  Sn51      1.0  0.47035  0.03106  0.19037  1.0000
  C  Sn52      1.0  0.46751  0.05468  0.16088  1.0000
  C   C319      1.0  0.48623  0.07955  0.23004  1.0000
  C   C320      1.0  0.50763  0.08117  0.32781  1.0000
  H   H195      1.0  0.52698  0.05911  0.43247  1.0000
  O  Te51      1.0  0.45195  0.00596  0.12277  1.0000
  O  Te52      1.0  0.44625  0.05341  0.06350  1.0000
  H   H196      1.0  0.52203  0.10050  0.38087  1.0000
  Mg  Mg26      1.0  0.43336  0.00977  0.99857  1.0000
  C   C321      1.0  0.41569  0.46449  0.65986  1.0000
  C   C322      1.0  0.40824  0.47953  0.74872  1.0000
  C  Sn53      1.0  0.42792  0.49990  0.84470  1.0000
  C  Sn54      1.0  0.45557  0.50527  0.85157  1.0000
  C   C323      1.0  0.46282  0.49012  0.76214  1.0000
  C   C324      1.0  0.44296  0.46978  0.66652  1.0000
  H   H197      1.0  0.40033  0.44876  0.58581  1.0000
  O  Te53      1.0  0.42012  0.51472  0.93276  1.0000
  O  Te54      1.0  0.47566  0.52551  0.94648  1.0000
  H   H198      1.0  0.44874  0.45815  0.59765  1.0000
  Mg  Mg27      1.0  0.44793  0.54502  0.04457  1.0000
  C   C325      1.0  0.25040  0.50935  0.74843  1.0000
  C   C326      1.0  0.22240  0.48933  0.75278  1.0000
  C  Sn55      1.0  0.21438  0.46139  0.77085  1.0000
  C  Sn56      1.0  0.23481  0.45342  0.78484  1.0000
  C   C327      1.0  0.26276  0.47361  0.78046  1.0000
  C   C328      1.0  0.27056  0.50151  0.76228  1.0000
  H   H199      1.0  0.25644  0.53094  0.73446  1.0000
  O  Te55      1.0  0.18632  0.44166  0.77489  1.0000
  O  Te56      1.0  0.22736  0.42564  0.80306  1.0000
  H   H200      1.0  0.29223  0.51700  0.75902  1.0000
  Mg  Mg28      1.0  0.18648  0.40640  0.80171  1.0000
  C   C329      1.0  0.41692  0.96136  0.83610  1.0000
  C   C330      1.0  0.40589  0.93713  0.75374  1.0000
  C  Sn57      1.0  0.42306  0.93188  0.66918  1.0000
  C  Sn58      1.0  0.45178  0.95128  0.66730  1.0000
  C   C331      1.0  0.46261  0.97544  0.75017  1.0000
  C   C332      1.0  0.44524  0.98049  0.83436  1.0000
  H   H201      1.0  0.40349  0.96526  0.90131  1.0000
  O  Te57      1.0  0.41170  0.90758  0.58749  1.0000
  O  Te58      1.0  0.46940  0.94655  0.58380  1.0000
  H   H202      1.0  0.95135  0.99924  0.89820  1.0000
  Mg  Mg29      1.0  0.44415  0.91042  0.49089  1.0000
  C   C333      1.0  0.53494  0.96697  0.66439  1.0000
  C   C334      1.0  0.51726  0.97266  0.74103  1.0000
  C  Sn59      1.0  0.49688  0.95225  0.83234  1.0000
  C  Sn60      1.0  0.49421  0.92568  0.84701  1.0000
  C   C335      1.0  0.51202  0.92020  0.76995  1.0000
  C   C336      1.0  0.53233  0.94077  0.67883  1.0000
  H   H203      1.0  0.55067  0.98289  0.59395  1.0000
  O  Te59      1.0  0.47938  0.95828  0.90808  1.0000
  O  Te60      1.0  0.47404  0.90490  0.93757  1.0000
  H   H204      1.0  0.54603  0.93636  0.61958  1.0000
  Mg  Mg30      1.0  0.44809  0.92793  0.01816  1.0000
