data_image0
_chemical_formula_structural       NCHNCHNCHNCHNCHNCHC6H3C6H3NCHNCHNCHNCHNCHNCHC6H3C6H3C2Sn2C2HTe2HMgC2Sn2C2HTe2HMgC2Sn2C2HTe2HMgC2Sn2C2HTe2HMgC2Sn2C2HTe2HMgC2Sn2C2HTe2HMgC2Sn2C2HTe2HMgC2Sn2C2HTe2HMgC2Sn2C2HTe2HMgC2Sn2C2HTe2HMgC2Sn2C2HTe2HMgC2Sn2C2HTe2HMg
_chemical_formula_sum              "N12 C84 H48 Sn24 Te24 Mg12"
_cell_length_a       29.8655
_cell_length_b       29.8224
_cell_length_c       8.18569
_cell_angle_alpha    118.994
_cell_angle_beta     96.5988
_cell_angle_gamma    60.0723

_symmetry_space_group_name_H-M    'P1'
_space_group_IT_number       1

loop_
  _space_group_symop_operation_xyz
  'x, y, z'

loop_
  _atom_site_type_symbol
  _atom_site_label
  _atom_site_symmetry_multiplicity
  _atom_site_fract_x
  _atom_site_fract_y
  _atom_site_fract_z
  _atom_site_occupancy
  N   N1        1.0  0.38164  0.42414  0.72775  1.0000
  C   C1        1.0  0.39816  0.37619  0.73571  1.0000
  H   H1        1.0  0.43963  0.34692  0.73387  1.0000
  N   N2        1.0  0.60997  0.58345  0.76948  1.0000
  C   C2        1.0  0.59392  0.63253  0.76955  1.0000
  H   H2        1.0  0.55249  0.66362  0.77766  1.0000
  N   N3        1.0  0.18953  0.38256  0.73985  1.0000
  C   C3        1.0  0.22211  0.39608  0.71484  1.0000
  H   H3        1.0  0.21025  0.43089  0.67765  1.0000
  N   N4        1.0  0.80877  0.60788  0.70592  1.0000
  C   C4        1.0  0.77420  0.59881  0.74399  1.0000
  H   H4        1.0  0.78375  0.56641  0.79003  1.0000
  N   N5        1.0  0.42164  0.19777  0.77468  1.0000
  C   C5        1.0  0.37352  0.22636  0.75658  1.0000
  H   H5        1.0  0.34652  0.20975  0.73614  1.0000
  N   N6        1.0  0.57726  0.80615  0.71635  1.0000
  C   C6        1.0  0.62662  0.77090  0.70200  1.0000
  H   H6        1.0  0.65705  0.77838  0.67657  1.0000
  C   C7        1.0  0.63035  0.64993  0.75440  1.0000
  C   C8        1.0  0.64584  0.71769  0.71739  1.0000
  C   C9        1.0  0.71889  0.63279  0.73474  1.0000
  C   C10       1.0  0.61140  0.70083  0.73897  1.0000
  C   C11       1.0  0.69938  0.68330  0.71417  1.0000
  C   C12       1.0  0.68430  0.61621  0.75369  1.0000
  H   H7        1.0  0.69807  0.57757  0.77065  1.0000
  H   H8        1.0  0.56975  0.72846  0.74348  1.0000
  H   H9        1.0  0.72692  0.69522  0.69753  1.0000
  C   C13       1.0  0.36314  0.35606  0.74239  1.0000
  C   C14       1.0  0.35185  0.28190  0.75306  1.0000
  C   C15       1.0  0.27736  0.36479  0.73046  1.0000
  C   C16       1.0  0.38382  0.30416  0.75324  1.0000
  C   C17       1.0  0.29892  0.31221  0.74041  1.0000
  C   C18       1.0  0.30958  0.38646  0.73136  1.0000
  H   H10       1.0  0.29434  0.42630  0.71990  1.0000
  H   H11       1.0  0.42523  0.27929  0.75868  1.0000
  H   H12       1.0  0.27336  0.29573  0.73811  1.0000
  N   N7        1.0  0.39144  0.41537  0.20354  1.0000
  C   C19       1.0  0.40417  0.37421  0.24479  1.0000
  H   H13       1.0  0.44199  0.35264  0.28692  1.0000
  N   N8        1.0  0.61825  0.57725  0.25542  1.0000
  C   C20       1.0  0.60070  0.62735  0.26062  1.0000
  H   H14       1.0  0.55861  0.65862  0.27911  1.0000
  N   N9        1.0  0.19120  0.39291  0.26435  1.0000
  C   C21       1.0  0.22605  0.39946  0.21457  1.0000
  H   H15       1.0  0.21645  0.42930  0.15739  1.0000
  N   N10       1.0  0.81113  0.61418  0.21271  1.0000
  C   C22       1.0  0.77911  0.59696  0.21341  1.0000
  H   H16       1.0  0.79182  0.55500  0.21044  1.0000
  N   N11       1.0  0.42089  0.19774  0.27684  1.0000
  C   C23       1.0  0.37280  0.22794  0.26187  1.0000
  H   H17       1.0  0.34474  0.21272  0.24196  1.0000
  N   N12       1.0  0.57612  0.80631  0.21798  1.0000
  C   C24       1.0  0.62563  0.77295  0.20882  1.0000
  H   H18       1.0  0.65507  0.78233  0.18756  1.0000
  C   C25       1.0  0.63553  0.64653  0.24393  1.0000
  C   C26       1.0  0.64680  0.71911  0.22207  1.0000
  C   C27       1.0  0.72290  0.63230  0.21954  1.0000
  C   C28       1.0  0.61421  0.69964  0.24009  1.0000
  C   C29       1.0  0.70078  0.68580  0.21497  1.0000
  C   C30       1.0  0.69015  0.61265  0.23155  1.0000
  H   H19       1.0  0.70602  0.57152  0.23560  1.0000
  H   H20       1.0  0.57215  0.72679  0.24971  1.0000
  H   H21       1.0  0.72677  0.70008  0.20221  1.0000
  C   C31       1.0  0.36823  0.35424  0.24296  1.0000
  C   C32       1.0  0.35290  0.28336  0.25947  1.0000
  C   C33       1.0  0.28118  0.36614  0.22853  1.0000
  C   C34       1.0  0.38642  0.30412  0.26229  1.0000
  C   C35       1.0  0.30032  0.31504  0.24530  1.0000
  C   C36       1.0  0.31554  0.38454  0.22253  1.0000
  H   H22       1.0  0.30226  0.42274  0.20360  1.0000
  H   H23       1.0  0.42711  0.27924  0.27504  1.0000
  H   H24       1.0  0.27325  0.30075  0.24686  1.0000
  C   C37       1.0  0.40102  0.49698  0.66720  1.0000
  C   C38       1.0  0.41192  0.45244  0.70781  1.0000
  C  Sn1       1.0  0.45842  0.42689  0.77217  1.0000
  C  Sn2       1.0  0.49461  0.44641  0.79623  1.0000
  C   C39       1.0  0.48333  0.49103  0.75535  1.0000
  C   C40       1.0  0.43668  0.51627  0.69097  1.0000
  H   H25       1.0  0.36492  0.51654  0.61749  1.0000
  O  Te1       1.0  0.46870  0.38242  0.81201  1.0000
  O  Te2       1.0  0.54137  0.42166  0.86043  1.0000
  H   H26       1.0  0.42824  0.55079  0.65966  1.0000
  Mg  Mg1       1.0  0.53775  0.36234  0.89583  1.0000
  C   C41       1.0  0.49234  0.58072  0.74245  1.0000
  C   C42       1.0  0.50742  0.52663  0.73109  1.0000
  C  Sn3       1.0  0.55877  0.49073  0.74512  1.0000
  C  Sn4       1.0  0.59563  0.50946  0.77106  1.0000
  C   C43       1.0  0.58015  0.56367  0.78239  1.0000
  C   C44       1.0  0.52866  0.59923  0.76811  1.0000
  H   H27       1.0  0.45250  0.60825  0.73151  1.0000
  O  Te3       1.0  0.57318  0.43681  0.73341  1.0000
  O  Te4       1.0  0.64720  0.47446  0.78560  1.0000
  H   H28       1.0  0.51700  0.64113  0.77703  1.0000
  Mg  Mg2       1.0  0.64804  0.40464  0.76108  1.0000
  C   C45       1.0  0.06728  0.40204  0.64371  1.0000
  C   C46       1.0  0.03322  0.46297  0.71131  1.0000
  C  Sn5       1.0  0.05214  0.50224  0.79100  1.0000
  C  Sn6       1.0  0.10618  0.47998  0.80300  1.0000
  C   C47       1.0  0.13994  0.41894  0.73484  1.0000
  C   C48       1.0  0.12059  0.38003  0.65542  1.0000
  H   H29       1.0  0.05231  0.37193  0.58216  1.0000
  O  Te5       1.0  0.01757  0.56299  0.85791  1.0000
  O  Te6       1.0  0.12614  0.51824  0.88191  1.0000
  H   H30       1.0  0.14698  0.33286  0.60298  1.0000
  Mg  Mg3       1.0  0.06347  0.59739  0.95358  1.0000
  C   C49       1.0  0.90661  0.59662  0.72317  1.0000
  C   C50       1.0  0.86944  0.57998  0.70816  1.0000
  C  Sn7       1.0  0.88347  0.52751  0.70662  1.0000
  C  Sn8       1.0  0.93570  0.49113  0.72045  1.0000
  C   C51       1.0  0.97259  0.50819  0.73556  1.0000
  C   C52       1.0  0.95814  0.56077  0.73690  1.0000
  H   H31       1.0  0.89543  0.63732  0.72432  1.0000
  O  Te7       1.0  0.84585  0.51153  0.69146  1.0000
  O  Te8       1.0  0.95077  0.43847  0.71933  1.0000
  H   H32       1.0  0.98692  0.57366  0.74865  1.0000
  Mg  Mg4       1.0  0.88539  0.43564  0.69601  1.0000
  C   C53       1.0  0.02262  0.05891  0.69021  1.0000
  C   C54       1.0  0.00056  0.03411  0.73749  1.0000
  C  Sn9       1.0  0.94664  0.06500  0.79905  1.0000
  C  Sn10      1.0  0.91431  0.12174  0.81336  1.0000
  C   C55       1.0  0.43494  0.14614  0.76559  1.0000
  C   C56       1.0  0.48894  0.11486  0.70420  1.0000
  H   H33       1.0  0.06440  0.03470  0.64261  1.0000
  O  Te9       1.0  0.92524  0.03959  0.84579  1.0000
  O  Te10      1.0  0.35849  0.15356  0.87443  1.0000
  H   H34       1.0  0.50601  0.13405  0.66749  1.0000
  Mg  Mg5       1.0  0.84953  0.10026  0.92198  1.0000
  C   C57       1.0  0.57640  0.93118  0.76886  1.0000
  C   C58       1.0  0.52899  0.96118  0.71692  1.0000
  C  Sn11      1.0  0.49424  0.93996  0.66817  1.0000
  C  Sn12      1.0  0.50731  0.88774  0.67166  1.0000
  C   C59       1.0  0.55482  0.85807  0.72395  1.0000
  C   C60       1.0  0.58931  0.87968  0.77242  1.0000
  H   H35       1.0  0.60308  0.94791  0.80646  1.0000
  O  Te11      1.0  0.44704  0.97047  0.61655  1.0000
  O  Te12      1.0  0.47329  0.86557  0.62367  1.0000
  H   H36       1.0  0.62601  0.85646  0.81274  1.0000
  Mg  Mg6       1.0  0.41360  0.92279  0.56294  1.0000
  C   C61       1.0  0.42120  0.51652  0.23383  1.0000
  C   C62       1.0  0.47382  0.49613  0.25442  1.0000
  C  Sn13      1.0  0.50510  0.44057  0.24298  1.0000
  C  Sn14      1.0  0.48319  0.40485  0.21024  1.0000
  C   C63       1.0  0.43051  0.42563  0.18969  1.0000
  C   C64       1.0  0.39956  0.48131  0.20146  1.0000
  H   H37       1.0  0.39726  0.55958  0.24282  1.0000
  O  Te13      1.0  0.55760  0.42088  0.26395  1.0000
  O  Te14      1.0  0.51357  0.34913  0.19809  1.0000
  H   H38       1.0  0.35883  0.49706  0.18538  1.0000
  Mg  Mg7       1.0  0.58310  0.34178  0.23613  1.0000
  C   C65       1.0  0.59874  0.50588  0.32525  1.0000
  C   C66       1.0  0.59085  0.54425  0.25955  1.0000
  C  Sn15      1.0  0.54458  0.56905  0.19294  1.0000
  C  Sn16      1.0  0.50554  0.55510  0.19233  1.0000
  C   C67       1.0  0.51378  0.51670  0.25848  1.0000
  C   C68       1.0  0.56024  0.49212  0.32476  1.0000
  H   H39       1.0  0.63467  0.48689  0.37663  1.0000
  O  Te15      1.0  0.53735  0.60729  0.12774  1.0000
  O  Te16      1.0  0.45891  0.57928  0.12660  1.0000
  H   H40       1.0  0.56632  0.46244  0.37574  1.0000
  Mg  Mg8       1.0  0.46725  0.62906  0.05205  1.0000
  C   C69       1.0  0.07259  0.51569  0.29301  1.0000
  C   C70       1.0  0.03761  0.49477  0.24024  1.0000
  C  Sn17      1.0  0.05353  0.43737  0.20135  1.0000
  C  Sn18      1.0  0.10545  0.40034  0.21572  1.0000
  C   C71       1.0  0.14013  0.42171  0.26874  1.0000
  C   C72       1.0  0.12380  0.47921  0.30729  1.0000
  H   H41       1.0  0.05995  0.56019  0.32293  1.0000
  O  Te17      1.0  0.01808  0.41716  0.14875  1.0000
  O  Te18      1.0  0.12238  0.34280  0.17771  1.0000
  H   H42       1.0  0.15088  0.49541  0.34825  1.0000
  Mg  Mg9       1.0  0.05962  0.33538  0.11123  1.0000
  C   C73       1.0  0.92657  0.50583  0.26796  1.0000
  C   C74       1.0  0.96625  0.51240  0.22580  1.0000
  C  Sn19      1.0  0.95401  0.55685  0.18292  1.0000
  C  Sn20      1.0  0.90102  0.59538  0.18241  1.0000
  C   C75       1.0  0.86161  0.58847  0.22492  1.0000
  C   C76       1.0  0.87430  0.54383  0.26757  1.0000
  H   H43       1.0  0.93638  0.47132  0.30106  1.0000
  O  Te19      1.0  0.99414  0.56278  0.14106  1.0000
  O  Te20      1.0  0.88769  0.64019  0.14013  1.0000
  H   H44       1.0  0.84357  0.53878  0.30033  1.0000
  Mg  Mg10      1.0  0.95628  0.63058  0.09229  1.0000
  C   C77       1.0  0.42017  0.08429  0.31000  1.0000
  C   C78       1.0  0.97400  0.03748  0.24245  1.0000
  C  Sn21      1.0  0.51003  0.04503  0.19180  1.0000
  C  Sn22      1.0  0.49542  0.10052  0.20932  1.0000
  C   C79       1.0  0.44328  0.14708  0.27718  1.0000
  C   C80       1.0  0.40572  0.13904  0.32739  1.0000
  H   H45       1.0  0.39111  0.07808  0.34896  1.0000
  O  Te21      1.0  0.06363  0.99779  0.12450  1.0000
  O  Te22      1.0  0.53245  0.10928  0.15978  1.0000
  H   H46       1.0  0.36546  0.17530  0.37981  1.0000
  Mg  Mg11      1.0  0.59807  0.03147  0.07509  1.0000
  C   C81       1.0  0.57320  0.93218  0.26961  1.0000
  C   C82       1.0  0.52556  0.96168  0.21770  1.0000
  C  Sn23      1.0  0.49127  0.93984  0.16951  1.0000
  C  Sn24      1.0  0.50503  0.88750  0.17353  1.0000
  C   C83       1.0  0.55276  0.85834  0.22579  1.0000
  C   C84       1.0  0.58679  0.88057  0.27369  1.0000
  H   H47       1.0  0.59951  0.94939  0.30677  1.0000
  O  Te23      1.0  0.44385  0.96985  0.11791  1.0000
  O  Te24      1.0  0.47148  0.86472  0.12610  1.0000
  H   H48       1.0  0.62365  0.85774  0.31399  1.0000
  Mg  Mg12      1.0  0.41124  0.92141  0.06517  1.0000
