data_image0
_chemical_formula_structural       NC7H5NCHNCHNC7H5NC7H5NCHC6H3C6H3NCHNC7H5NCHNCHNC7H5NC7H5C6H3C6H3C2Sn2C2HTe2HMgC2Sn2C2HTe2HMgC2Sn2C2HTe2HMgC2Sn2C2HTe2HMgC2Sn2C2HTe2HMgC2Sn2C2HTe2HMg
_chemical_formula_sum              "N12 C96 H60 Sn12 Te12 Mg6"
_cell_length_a       29.8655
_cell_length_b       29.8224
_cell_length_c       8.18569
_cell_angle_alpha    118.994
_cell_angle_beta     96.5988
_cell_angle_gamma    60.0723

_symmetry_space_group_name_H-M    'P1'
_space_group_IT_number       1

loop_
  _space_group_symop_operation_xyz
  'x, y, z'

loop_
  _atom_site_type_symbol
  _atom_site_label
  _atom_site_symmetry_multiplicity
  _atom_site_fract_x
  _atom_site_fract_y
  _atom_site_fract_z
  _atom_site_occupancy
  N   N1        1.0  0.38164  0.42414  0.72775  1.0000
  C   C1        1.0  0.39816  0.37619  0.73571  1.0000
  C   C2        1.0  0.41655  0.44259  0.72705  1.0000
  C   C3        1.0  0.46595  0.42309  0.78494  1.0000
  C   C4        1.0  0.49678  0.44596  0.78663  1.0000
  C   C5        1.0  0.48042  0.48892  0.73036  1.0000
  C   C6        1.0  0.43094  0.50825  0.67310  1.0000
  C   C7        1.0  0.39971  0.48585  0.67229  1.0000
  H   H1        1.0  0.43963  0.34692  0.73387  1.0000
  H   H2        1.0  0.47939  0.39210  0.83787  1.0000
  H   H3        1.0  0.36191  0.50055  0.62559  1.0000
  H   H4        1.0  0.53330  0.43213  0.84156  1.0000
  H   H5        1.0  0.41698  0.54033  0.62450  1.0000
  N   N2        1.0  0.60997  0.58345  0.76948  1.0000
  C   C8        1.0  0.59392  0.63253  0.76955  1.0000
  H   H6        1.0  0.55249  0.66362  0.77766  1.0000
  N   N3        1.0  0.18953  0.38256  0.73985  1.0000
  C   C9        1.0  0.22211  0.39608  0.71484  1.0000
  H   H7        1.0  0.21025  0.43089  0.67765  1.0000
  N   N4        1.0  0.80877  0.60788  0.70592  1.0000
  C   C10       1.0  0.77420  0.59881  0.74399  1.0000
  C   C11       1.0  0.86175  0.57442  0.71414  1.0000
  C   C12       1.0  0.88542  0.51942  0.71001  1.0000
  C   C13       1.0  0.93872  0.48890  0.71277  1.0000
  C   C14       1.0  0.97122  0.51108  0.71705  1.0000
  C   C15       1.0  0.94732  0.56588  0.71980  1.0000
  C   C16       1.0  0.89393  0.59676  0.71799  1.0000
  H   H8        1.0  0.78375  0.56641  0.79003  1.0000
  H   H9        1.0  0.86196  0.50045  0.70569  1.0000
  H   H10       1.0  0.87597  0.63830  0.71527  1.0000
  H   H11       1.0  0.95537  0.44763  0.71616  1.0000
  H   H12       1.0  0.97120  0.58356  0.71632  1.0000
  N   N5        1.0  0.42164  0.19777  0.77468  1.0000
  C   C17       1.0  0.37352  0.22636  0.75658  1.0000
  C   C18       1.0  0.44157  0.14320  0.76824  1.0000
  C   C19       1.0  0.41152  0.12452  0.81007  1.0000
  C   C20       1.0  0.43527  0.06869  0.79483  1.0000
  C   C21       1.0  0.48979  0.02874  0.73623  1.0000
  C   C22       1.0  0.51960  0.04833  0.69907  1.0000
  C   C23       1.0  0.49618  0.10436  0.71602  1.0000
  H   H13       1.0  0.34652  0.20975  0.73614  1.0000
  H   H14       1.0  0.36957  0.15470  0.86037  1.0000
  H   H15       1.0  0.51915  0.11900  0.68391  1.0000
  H   H16       1.0  0.41164  0.05620  0.83542  1.0000
  H   H17       1.0  0.56169  0.01858  0.65264  1.0000
  N   N6        1.0  0.57726  0.80615  0.71635  1.0000
  C   C24       1.0  0.62662  0.77090  0.70200  1.0000
  H   H18       1.0  0.65705  0.77838  0.67657  1.0000
  C   C25       1.0  0.63035  0.64993  0.75440  1.0000
  C   C26       1.0  0.64584  0.71769  0.71739  1.0000
  C   C27       1.0  0.71889  0.63279  0.73474  1.0000
  C   C28       1.0  0.61140  0.70083  0.73897  1.0000
  C   C29       1.0  0.69938  0.68330  0.71417  1.0000
  C   C30       1.0  0.68430  0.61621  0.75369  1.0000
  H   H19       1.0  0.69807  0.57757  0.77065  1.0000
  H   H20       1.0  0.56975  0.72846  0.74348  1.0000
  H   H21       1.0  0.72692  0.69522  0.69753  1.0000
  C   C31       1.0  0.36314  0.35606  0.74239  1.0000
  C   C32       1.0  0.35185  0.28190  0.75306  1.0000
  C   C33       1.0  0.27736  0.36479  0.73046  1.0000
  C   C34       1.0  0.38382  0.30416  0.75324  1.0000
  C   C35       1.0  0.29892  0.31221  0.74041  1.0000
  C   C36       1.0  0.30958  0.38646  0.73136  1.0000
  H   H22       1.0  0.29434  0.42630  0.71990  1.0000
  H   H23       1.0  0.42523  0.27929  0.75868  1.0000
  H   H24       1.0  0.27336  0.29573  0.73811  1.0000
  N   N7        1.0  0.39144  0.41537  0.20354  1.0000
  C   C37       1.0  0.40417  0.37421  0.24479  1.0000
  H   H25       1.0  0.44199  0.35264  0.28692  1.0000
  N   N8        1.0  0.61825  0.57725  0.25542  1.0000
  C   C38       1.0  0.60070  0.62735  0.26062  1.0000
  C   C39       1.0  0.58365  0.55876  0.25890  1.0000
  C   C40       1.0  0.53410  0.57837  0.20200  1.0000
  C   C41       1.0  0.50360  0.55500  0.19933  1.0000
  C   C42       1.0  0.52067  0.51124  0.25247  1.0000
  C   C43       1.0  0.57029  0.49182  0.30881  1.0000
  C   C44       1.0  0.60113  0.51485  0.31131  1.0000
  H   H26       1.0  0.55861  0.65862  0.27911  1.0000
  H   H27       1.0  0.52069  0.60930  0.14864  1.0000
  H   H28       1.0  0.63883  0.50055  0.35908  1.0000
  H   H29       1.0  0.46695  0.56877  0.14493  1.0000
  H   H30       1.0  0.58427  0.45961  0.35708  1.0000
  N   N9        1.0  0.19120  0.39291  0.26435  1.0000
  C   C45       1.0  0.22605  0.39946  0.21457  1.0000
  H   H31       1.0  0.21645  0.42930  0.15739  1.0000
  N   N10       1.0  0.81113  0.61418  0.21271  1.0000
  C   C46       1.0  0.77911  0.59696  0.21341  1.0000
  H   H32       1.0  0.79182  0.55500  0.21044  1.0000
  N   N11       1.0  0.42089  0.19774  0.27684  1.0000
  C   C47       1.0  0.37280  0.22794  0.26187  1.0000
  C   C48       1.0  0.43983  0.14309  0.26825  1.0000
  C   C49       1.0  0.40911  0.12503  0.30942  1.0000
  C   C50       1.0  0.43211  0.06920  0.29387  1.0000
  C   C51       1.0  0.48655  0.02876  0.23533  1.0000
  C   C52       1.0  0.51698  0.04755  0.19722  1.0000
  C   C53       1.0  0.49430  0.10352  0.21473  1.0000
  H   H33       1.0  0.34474  0.21272  0.24196  1.0000
  H   H34       1.0  0.36723  0.15575  0.35957  1.0000
  H   H35       1.0  0.51774  0.11767  0.18260  1.0000
  H   H36       1.0  0.40803  0.05717  0.33429  1.0000
  H   H37       1.0  0.55896  0.01721  0.15001  1.0000
  N   N12       1.0  0.57612  0.80631  0.21798  1.0000
  C   C54       1.0  0.62563  0.77295  0.20882  1.0000
  C   C55       1.0  0.55736  0.85926  0.21445  1.0000
  C   C56       1.0  0.58498  0.88948  0.25605  1.0000
  C   C57       1.0  0.56228  0.94324  0.25797  1.0000
  C   C58       1.0  0.51086  0.97007  0.22173  1.0000
  C   C59       1.0  0.48357  0.93954  0.17910  1.0000
  C   C60       1.0  0.50627  0.88540  0.17551  1.0000
  H   H38       1.0  0.65507  0.78233  0.18756  1.0000
  H   H39       1.0  0.62357  0.87204  0.29545  1.0000
  H   H40       1.0  0.48501  0.86207  0.14347  1.0000
  H   H41       1.0  0.58377  0.96658  0.29643  1.0000
  H   H42       1.0  0.44427  0.95834  0.14604  1.0000
  C   C61       1.0  0.63553  0.64653  0.24393  1.0000
  C   C62       1.0  0.64680  0.71911  0.22207  1.0000
  C   C63       1.0  0.72290  0.63230  0.21954  1.0000
  C   C64       1.0  0.61421  0.69964  0.24009  1.0000
  C   C65       1.0  0.70078  0.68580  0.21497  1.0000
  C   C66       1.0  0.69015  0.61265  0.23155  1.0000
  H   H43       1.0  0.70602  0.57152  0.23560  1.0000
  H   H44       1.0  0.57215  0.72679  0.24971  1.0000
  H   H45       1.0  0.72677  0.70008  0.20221  1.0000
  C   C67       1.0  0.36823  0.35424  0.24296  1.0000
  C   C68       1.0  0.35290  0.28336  0.25947  1.0000
  C   C69       1.0  0.28118  0.36614  0.22853  1.0000
  C   C70       1.0  0.38642  0.30412  0.26229  1.0000
  C   C71       1.0  0.30032  0.31504  0.24530  1.0000
  C   C72       1.0  0.31554  0.38454  0.22253  1.0000
  H   H46       1.0  0.30226  0.42274  0.20360  1.0000
  H   H47       1.0  0.42711  0.27924  0.27504  1.0000
  H   H48       1.0  0.27325  0.30075  0.24686  1.0000
  C   C73       1.0  0.49234  0.58072  0.74245  1.0000
  C   C74       1.0  0.50742  0.52663  0.73109  1.0000
  C  Sn1       1.0  0.55877  0.49073  0.74512  1.0000
  C  Sn2       1.0  0.59563  0.50946  0.77106  1.0000
  C   C75       1.0  0.58015  0.56367  0.78239  1.0000
  C   C76       1.0  0.52866  0.59923  0.76811  1.0000
  H   H49       1.0  0.45250  0.60825  0.73151  1.0000
  O  Te1       1.0  0.57318  0.43681  0.73341  1.0000
  O  Te2       1.0  0.64720  0.47446  0.78560  1.0000
  H   H50       1.0  0.51700  0.64113  0.77703  1.0000
  Mg  Mg1       1.0  0.64804  0.40464  0.76108  1.0000
  C   C77       1.0  0.89831  0.51985  0.25545  1.0000
  C   C78       1.0  0.86866  0.56973  0.23236  1.0000
  C  Sn3       1.0  0.89315  0.59418  0.19559  1.0000
  C  Sn4       1.0  0.94834  0.56810  0.18171  1.0000
  C   C79       1.0  0.97766  0.51817  0.20491  1.0000
  C   C80       1.0  0.95276  0.49408  0.24171  1.0000
  H   H51       1.0  0.87906  0.50118  0.28383  1.0000
  O  Te3       1.0  0.86293  0.64405  0.17297  1.0000
  O  Te4       1.0  0.97381  0.59162  0.14501  1.0000
  H   H52       1.0  0.97573  0.45543  0.25946  1.0000
  Mg  Mg2       1.0  0.91566  0.65992  0.12502  1.0000
  C   C81       1.0  0.40417  0.50442  0.23454  1.0000
  C   C82       1.0  0.42017  0.44756  0.20138  1.0000
  C  Sn5       1.0  0.47253  0.40894  0.19750  1.0000
  C  Sn6       1.0  0.50948  0.42773  0.22748  1.0000
  C   C83       1.0  0.49308  0.48472  0.26068  1.0000
  C   C84       1.0  0.44058  0.52300  0.26420  1.0000
  H   H53       1.0  0.36355  0.53405  0.23737  1.0000
  O  Te5       1.0  0.48785  0.35227  0.16411  1.0000
  O  Te6       1.0  0.56205  0.39004  0.22443  1.0000
  H   H54       1.0  0.42821  0.56704  0.29000  1.0000
  Mg  Mg3       1.0  0.56389  0.31704  0.17332  1.0000
  C   C85       1.0  0.07259  0.51569  0.29301  1.0000
  C   C86       1.0  0.03761  0.49477  0.24024  1.0000
  C  Sn7       1.0  0.05353  0.43737  0.20135  1.0000
  C  Sn8       1.0  0.10545  0.40034  0.21572  1.0000
  C   C87       1.0  0.14013  0.42171  0.26874  1.0000
  C   C88       1.0  0.12380  0.47921  0.30729  1.0000
  H   H55       1.0  0.05995  0.56019  0.32293  1.0000
  O  Te7       1.0  0.01808  0.41716  0.14875  1.0000
  O  Te8       1.0  0.12238  0.34280  0.17771  1.0000
  H   H56       1.0  0.15088  0.49541  0.34825  1.0000
  Mg  Mg4       1.0  0.05962  0.33538  0.11123  1.0000
  C   C89       1.0  0.09531  0.38596  0.65660  1.0000
  C   C90       1.0  0.13032  0.40682  0.71291  1.0000
  C  Sn9       1.0  0.11255  0.46704  0.78395  1.0000
  C  Sn10      1.0  0.05871  0.50700  0.79878  1.0000
  C   C91       1.0  0.02400  0.48570  0.74219  1.0000
  C   C92       1.0  0.04220  0.42536  0.67124  1.0000
  H   H57       1.0  0.10939  0.33928  0.60180  1.0000
  O  Te9       1.0  0.14807  0.48713  0.83951  1.0000
  O  Te10      1.0  0.03990  0.56741  0.86935  1.0000
  H   H58       1.0  0.01508  0.40923  0.62777  1.0000
  Mg  Mg5       1.0  0.10356  0.57342  0.92671  1.0000
  C   C93       1.0  0.48582  0.92617  0.66487  1.0000
  C   C94       1.0  0.50534  0.96442  0.71830  1.0000
  C  Sn11      1.0  0.55542  0.94814  0.76623  1.0000
  C  Sn12      1.0  0.58645  0.89250  0.76039  1.0000
  C   C95       1.0  0.56659  0.85454  0.70663  1.0000
  C   C96       1.0  0.51641  0.87128  0.65901  1.0000
  H   H59       1.0  0.44702  0.93911  0.62792  1.0000
  O  Te11      1.0  0.57430  0.98689  0.81936  1.0000
  O  Te12      1.0  0.63664  0.87511  0.80753  1.0000
  H   H60       1.0  0.50133  0.84164  0.61753  1.0000
  Mg  Mg6       1.0  0.64508  0.94325  0.87098  1.0000
