data_image0
_chemical_formula_structural       NCHNC7H5NC7H5NC7H5NCHNCHC6H3C6H3NCHNC7H5NCHNC7H5NCHNC7H5C6H3C6H3SnCSn2CSnTe4Mg2SnCSn2CSnTe4Mg2SnCSn2CSnTe4Mg2SnCSn2CSnTe4Mg2SnCSn2CSnTe4Mg2SnCSn2CSnTe4Mg2
_chemical_formula_sum              "N12 C84 H48 Sn24 Te24 Mg12"
_cell_length_a       29.8655
_cell_length_b       29.8224
_cell_length_c       8.18569
_cell_angle_alpha    118.994
_cell_angle_beta     96.5988
_cell_angle_gamma    60.0723

_symmetry_space_group_name_H-M    'P1'
_space_group_IT_number       1

loop_
  _space_group_symop_operation_xyz
  'x, y, z'

loop_
  _atom_site_type_symbol
  _atom_site_label
  _atom_site_symmetry_multiplicity
  _atom_site_fract_x
  _atom_site_fract_y
  _atom_site_fract_z
  _atom_site_occupancy
  N   N1        1.0  0.38164  0.42414  0.72775  1.0000
  C   C1        1.0  0.39816  0.37619  0.73571  1.0000
  H   H1        1.0  0.43963  0.34692  0.73387  1.0000
  N   N2        1.0  0.60997  0.58345  0.76948  1.0000
  C   C2        1.0  0.59392  0.63253  0.76955  1.0000
  C   C3        1.0  0.57514  0.56464  0.76700  1.0000
  C   C4        1.0  0.52175  0.59267  0.75033  1.0000
  C   C5        1.0  0.49177  0.56779  0.73680  1.0000
  C   C6        1.0  0.51315  0.51374  0.73793  1.0000
  C   C7        1.0  0.56661  0.48578  0.75310  1.0000
  C   C8        1.0  0.59674  0.51079  0.76851  1.0000
  H   H2        1.0  0.55249  0.66362  0.77766  1.0000
  H   H3        1.0  0.50382  0.63326  0.74188  1.0000
  H   H4        1.0  0.63788  0.48916  0.78165  1.0000
  H   H5        1.0  0.45082  0.59061  0.72348  1.0000
  H   H6        1.0  0.58501  0.44394  0.75387  1.0000
  N   N3        1.0  0.18953  0.38256  0.73985  1.0000
  C   C9        1.0  0.22211  0.39608  0.71484  1.0000
  C   C10       1.0  0.13645  0.41562  0.73337  1.0000
  C   C11       1.0  0.10952  0.47727  0.79874  1.0000
  C   C12       1.0  0.05644  0.50764  0.79233  1.0000
  C   C13       1.0  0.02769  0.47825  0.72024  1.0000
  C   C14       1.0  0.05495  0.41662  0.65688  1.0000
  C   C15       1.0  0.10781  0.38615  0.66580  1.0000
  H   H7        1.0  0.21025  0.43089  0.67765  1.0000
  H   H8        1.0  0.13021  0.50156  0.86126  1.0000
  H   H9        1.0  0.12837  0.33872  0.61775  1.0000
  H   H10       1.0  0.03646  0.55554  0.84902  1.0000
  H   H11       1.0  0.03446  0.39202  0.59801  1.0000
  N   N4        1.0  0.80877  0.60788  0.70592  1.0000
  C   C16       1.0  0.77420  0.59881  0.74399  1.0000
  C   C17       1.0  0.86175  0.57442  0.71414  1.0000
  C   C18       1.0  0.88542  0.51942  0.71001  1.0000
  C   C19       1.0  0.93872  0.48890  0.71277  1.0000
  C   C20       1.0  0.97122  0.51108  0.71705  1.0000
  C   C21       1.0  0.94732  0.56588  0.71980  1.0000
  C   C22       1.0  0.89393  0.59676  0.71799  1.0000
  H   H12       1.0  0.78375  0.56641  0.79003  1.0000
  H   H13       1.0  0.86196  0.50045  0.70569  1.0000
  H   H14       1.0  0.87597  0.63830  0.71527  1.0000
  H   H15       1.0  0.95537  0.44763  0.71616  1.0000
  H   H16       1.0  0.97120  0.58356  0.71632  1.0000
  N   N5        1.0  0.42164  0.19777  0.77468  1.0000
  C   C23       1.0  0.37352  0.22636  0.75658  1.0000
  H   H17       1.0  0.34652  0.20975  0.73614  1.0000
  N   N6        1.0  0.57726  0.80615  0.71635  1.0000
  C   C24       1.0  0.62662  0.77090  0.70200  1.0000
  H   H18       1.0  0.65705  0.77838  0.67657  1.0000
  C   C25       1.0  0.63035  0.64993  0.75440  1.0000
  C   C26       1.0  0.64584  0.71769  0.71739  1.0000
  C   C27       1.0  0.71889  0.63279  0.73474  1.0000
  C   C28       1.0  0.61140  0.70083  0.73897  1.0000
  C   C29       1.0  0.69938  0.68330  0.71417  1.0000
  C   C30       1.0  0.68430  0.61621  0.75369  1.0000
  H   H19       1.0  0.69807  0.57757  0.77065  1.0000
  H   H20       1.0  0.56975  0.72846  0.74348  1.0000
  H   H21       1.0  0.72692  0.69522  0.69753  1.0000
  C   C31       1.0  0.36314  0.35606  0.74239  1.0000
  C   C32       1.0  0.35185  0.28190  0.75306  1.0000
  C   C33       1.0  0.27736  0.36479  0.73046  1.0000
  C   C34       1.0  0.38382  0.30416  0.75324  1.0000
  C   C35       1.0  0.29892  0.31221  0.74041  1.0000
  C   C36       1.0  0.30958  0.38646  0.73136  1.0000
  H   H22       1.0  0.29434  0.42630  0.71990  1.0000
  H   H23       1.0  0.42523  0.27929  0.75868  1.0000
  H   H24       1.0  0.27336  0.29573  0.73811  1.0000
  N   N7        1.0  0.39144  0.41537  0.20354  1.0000
  C   C37       1.0  0.40417  0.37421  0.24479  1.0000
  H   H25       1.0  0.44199  0.35264  0.28692  1.0000
  N   N8        1.0  0.61825  0.57725  0.25542  1.0000
  C   C38       1.0  0.60070  0.62735  0.26062  1.0000
  C   C39       1.0  0.58365  0.55876  0.25890  1.0000
  C   C40       1.0  0.53410  0.57837  0.20200  1.0000
  C   C41       1.0  0.50360  0.55500  0.19933  1.0000
  C   C42       1.0  0.52067  0.51124  0.25247  1.0000
  C   C43       1.0  0.57029  0.49182  0.30881  1.0000
  C   C44       1.0  0.60113  0.51485  0.31131  1.0000
  H   H26       1.0  0.55861  0.65862  0.27911  1.0000
  H   H27       1.0  0.52069  0.60930  0.14864  1.0000
  H   H28       1.0  0.63883  0.50055  0.35908  1.0000
  H   H29       1.0  0.46695  0.56877  0.14493  1.0000
  H   H30       1.0  0.58427  0.45961  0.35708  1.0000
  N   N9        1.0  0.19120  0.39291  0.26435  1.0000
  C   C45       1.0  0.22605  0.39946  0.21457  1.0000
  H   H31       1.0  0.21645  0.42930  0.15739  1.0000
  N   N10       1.0  0.81113  0.61418  0.21271  1.0000
  C   C46       1.0  0.77911  0.59696  0.21341  1.0000
  C   C47       1.0  0.86455  0.58048  0.21637  1.0000
  C   C48       1.0  0.88678  0.53269  0.25292  1.0000
  C   C49       1.0  0.93991  0.50316  0.25874  1.0000
  C   C50       1.0  0.97377  0.51944  0.22751  1.0000
  C   C51       1.0  0.95128  0.56750  0.19249  1.0000
  C   C52       1.0  0.89794  0.59752  0.18769  1.0000
  H   H32       1.0  0.79182  0.55500  0.21044  1.0000
  H   H33       1.0  0.86205  0.52021  0.28649  1.0000
  H   H34       1.0  0.88108  0.63418  0.15848  1.0000
  H   H35       1.0  0.95498  0.46872  0.29770  1.0000
  H   H36       1.0  0.97615  0.58077  0.16442  1.0000
  N   N11       1.0  0.42089  0.19774  0.27684  1.0000
  C   C53       1.0  0.37280  0.22794  0.26187  1.0000
  H   H37       1.0  0.34474  0.21272  0.24196  1.0000
  N   N12       1.0  0.57612  0.80631  0.21798  1.0000
  C   C54       1.0  0.62563  0.77295  0.20882  1.0000
  C   C55       1.0  0.55736  0.85926  0.21445  1.0000
  C   C56       1.0  0.58498  0.88948  0.25605  1.0000
  C   C57       1.0  0.56228  0.94324  0.25797  1.0000
  C   C58       1.0  0.51086  0.97007  0.22173  1.0000
  C   C59       1.0  0.48357  0.93954  0.17910  1.0000
  C   C60       1.0  0.50627  0.88540  0.17551  1.0000
  H   H38       1.0  0.65507  0.78233  0.18756  1.0000
  H   H39       1.0  0.62357  0.87204  0.29545  1.0000
  H   H40       1.0  0.48501  0.86207  0.14347  1.0000
  H   H41       1.0  0.58377  0.96658  0.29643  1.0000
  H   H42       1.0  0.44427  0.95834  0.14604  1.0000
  C   C61       1.0  0.63553  0.64653  0.24393  1.0000
  C   C62       1.0  0.64680  0.71911  0.22207  1.0000
  C   C63       1.0  0.72290  0.63230  0.21954  1.0000
  C   C64       1.0  0.61421  0.69964  0.24009  1.0000
  C   C65       1.0  0.70078  0.68580  0.21497  1.0000
  C   C66       1.0  0.69015  0.61265  0.23155  1.0000
  H   H43       1.0  0.70602  0.57152  0.23560  1.0000
  H   H44       1.0  0.57215  0.72679  0.24971  1.0000
  H   H45       1.0  0.72677  0.70008  0.20221  1.0000
  C   C67       1.0  0.36823  0.35424  0.24296  1.0000
  C   C68       1.0  0.35290  0.28336  0.25947  1.0000
  C   C69       1.0  0.28118  0.36614  0.22853  1.0000
  C   C70       1.0  0.38642  0.30412  0.26229  1.0000
  C   C71       1.0  0.30032  0.31504  0.24530  1.0000
  C   C72       1.0  0.31554  0.38454  0.22253  1.0000
  H   H46       1.0  0.30226  0.42274  0.20360  1.0000
  H   H47       1.0  0.42711  0.27924  0.27504  1.0000
  H   H48       1.0  0.27325  0.30075  0.24686  1.0000
  C  Sn1       1.0  0.57953  0.92210  0.70492  1.0000
  C   C73       1.0  0.52967  0.95443  0.67134  1.0000
  C  Sn2       1.0  0.49077  0.94163  0.67387  1.0000
  C  Sn3       1.0  0.50192  0.89559  0.71084  1.0000
  C   C74       1.0  0.55175  0.86329  0.74442  1.0000
  C  Sn4       1.0  0.59069  0.87605  0.74189  1.0000
  O  Te1       1.0  0.61782  0.93565  0.70172  1.0000
  O  Te2       1.0  0.44121  0.97455  0.63982  1.0000
  O  Te3       1.0  0.46358  0.88205  0.71401  1.0000
  O  Te4       1.0  0.64021  0.84316  0.77594  1.0000
  Mg  Mg1       1.0  0.40207  0.93939  0.65935  1.0000
  Mg  Mg2       1.0  0.67937  0.87830  0.75655  1.0000
  C  Sn5       1.0  0.41481  0.51928  0.72233  1.0000
  C   C75       1.0  0.46470  0.50446  0.77122  1.0000
  C  Sn6       1.0  0.49460  0.45330  0.78736  1.0000
  C  Sn7       1.0  0.47423  0.41616  0.75381  1.0000
  C   C76       1.0  0.42437  0.43099  0.70492  1.0000
  C  Sn8       1.0  0.39443  0.48215  0.68878  1.0000
  O  Te5       1.0  0.38561  0.57064  0.70699  1.0000
  O  Te6       1.0  0.54437  0.43941  0.83648  1.0000
  O  Te7       1.0  0.50348  0.36478  0.76920  1.0000
  O  Te8       1.0  0.34470  0.49603  0.63966  1.0000
  Mg  Mg3       1.0  0.56916  0.36469  0.83967  1.0000
  Mg  Mg4       1.0  0.31989  0.57072  0.63633  1.0000
  C  Sn9       1.0  0.51772  0.06532  0.25174  1.0000
  C   C77       1.0  0.99499  0.03972  0.28100  1.0000
  C  Sn10      1.0  0.43895  0.06462  0.29218  1.0000
  C  Sn11      1.0  0.40861  0.11616  0.27362  1.0000
  C   C78       1.0  0.43314  0.14172  0.24435  1.0000
  C  Sn12      1.0  0.48738  0.11686  0.23318  1.0000
  O  Te9       1.0  0.57199  0.03968  0.24101  1.0000
  O  Te10      1.0  0.91711  0.03825  0.32157  1.0000
  O  Te11      1.0  0.35430  0.14180  0.28438  1.0000
  O  Te12      1.0  0.51103  0.14320  0.20378  1.0000
  Mg  Mg5       1.0  0.34015  0.08961  0.32586  1.0000
  Mg  Mg6       1.0  0.58617  0.09186  0.19936  1.0000
  C  Sn13      1.0  0.50997  0.41277  0.16690  1.0000
  C   C79       1.0  0.49361  0.46828  0.18702  1.0000
  C  Sn14      1.0  0.44048  0.51195  0.23788  1.0000
  C  Sn15      1.0  0.40293  0.49991  0.26943  1.0000
  C   C80       1.0  0.41930  0.44444  0.24935  1.0000
  C  Sn16      1.0  0.47242  0.40073  0.19845  1.0000
  O  Te13      1.0  0.56329  0.36978  0.11595  1.0000
  O  Te14      1.0  0.42506  0.56710  0.25707  1.0000
  O  Te15      1.0  0.34958  0.54297  0.32041  1.0000
  O  Te16      1.0  0.48784  0.34562  0.17930  1.0000
  Mg  Mg7       1.0  0.34794  0.61126  0.32901  1.0000
  Mg  Mg8       1.0  0.56496  0.30144  0.10746  1.0000
  C  Sn17      1.0  0.06223  0.42614  0.26050  1.0000
  C   C81       1.0  0.03216  0.48287  0.27961  1.0000
  C  Sn18      1.0  0.05635  0.51218  0.27547  1.0000
  C  Sn19      1.0  0.11177  0.48418  0.25162  1.0000
  C   C82       1.0  0.14181  0.42748  0.23250  1.0000
  C  Sn20      1.0  0.11765  0.39814  0.23665  1.0000
  O  Te17      1.0  0.03721  0.39768  0.26504  1.0000
  O  Te18      1.0  0.02546  0.56888  0.29493  1.0000
  O  Te19      1.0  0.13678  0.51270  0.24710  1.0000
  O  Te20      1.0  0.14851  0.34147  0.21717  1.0000
  Mg  Mg9       1.0  0.07778  0.58956  0.27947  1.0000
  Mg  Mg10      1.0  0.09624  0.32074  0.23252  1.0000
  C  Sn21      1.0  0.00408  0.08480  0.65370  1.0000
  C   C83       1.0  0.44951  0.12971  0.71595  1.0000
  C  Sn22      1.0  0.41558  0.12717  0.81085  1.0000
  C  Sn23      1.0  0.93659  0.07873  0.84433  1.0000
  C   C84       1.0  0.98931  0.03386  0.78213  1.0000
  C  Sn24      1.0  0.02327  0.03636  0.68719  1.0000
  O  Te21      1.0  0.53549  0.08826  0.55913  1.0000
  O  Te22      1.0  0.36300  0.17259  0.87168  1.0000
  O  Te23      1.0  0.90331  0.07531  0.93898  1.0000
  O  Te24      1.0  0.07582  0.99098  0.62641  1.0000
  Mg  Mg11      1.0  0.83492  0.14798  0.99444  1.0000
  Mg  Mg12      1.0  0.10575  0.01556  0.50373  1.0000
