data_image0
_chemical_formula_structural       N12C24H18C6N6C24H16N12C30H22C6N6C6H4C2Sn2C2HTe2HMgC2Sn2C2HTe2HMgC2Sn2C2HTe2HMgC2Sn2C2HTe2HMgC2Sn2C2HTe2HMgC2Sn2C2HTe2HMgC2Sn2C2HTe2HMgC2Sn2C2HTe2HMgC2Sn2C2HTe2HMgC2Sn2C2HTe2HMgC2Sn2C2HTe2HMgC2Sn2C2HTe2HMg
_chemical_formula_sum              "N36 C144 H84 Sn24 Te24 Mg12"
_cell_length_a       47.4898
_cell_length_b       47.8092
_cell_length_c       8.06706
_cell_angle_alpha    59.7297
_cell_angle_beta     106.008
_cell_angle_gamma    120.182

_symmetry_space_group_name_H-M    'P1'
_space_group_IT_number       1

loop_
  _space_group_symop_operation_xyz
  'x, y, z'

loop_
  _atom_site_type_symbol
  _atom_site_label
  _atom_site_symmetry_multiplicity
  _atom_site_fract_x
  _atom_site_fract_y
  _atom_site_fract_z
  _atom_site_occupancy
  N   N1        1.0  0.14690  0.57474  0.22945  1.0000
  N   N2        1.0  0.43156  0.57152  0.25178  1.0000
  N   N3        1.0  0.42926  0.85551  0.26766  1.0000
  N   N4        1.0  0.85806  0.42582  0.27099  1.0000
  N   N5        1.0  0.57236  0.42885  0.21668  1.0000
  N   N6        1.0  0.57065  0.14477  0.23671  1.0000
  N   N7        1.0  0.01093  0.51662  0.25315  1.0000
  N   N8        1.0  0.48827  0.49310  0.25268  1.0000
  N   N9        1.0  0.50590  0.99037  0.27553  1.0000
  N   N10       1.0  0.99442  0.48431  0.27008  1.0000
  N   N11       1.0  0.51883  0.50982  0.22033  1.0000
  N   N12       1.0  0.49106  0.00630  0.27883  1.0000
  C   C1        1.0  0.16747  0.59949  0.28446  1.0000
  C   C2        1.0  0.11335  0.56112  0.24059  1.0000
  C   C3        1.0  0.09773  0.58039  0.23132  1.0000
  C   C4        1.0  0.06396  0.56463  0.23804  1.0000
  C   C5        1.0  0.04489  0.52951  0.25249  1.0000
  C   C6        1.0  0.06043  0.51016  0.26175  1.0000
  C   C7        1.0  0.09401  0.52598  0.25357  1.0000
  C   C8        1.0  0.40054  0.56145  0.24808  1.0000
  C   C9        1.0  0.44035  0.83904  0.23437  1.0000
  C   C10       1.0  0.44946  0.88919  0.26609  1.0000
  C   C11       1.0  0.48364  0.90309  0.29701  1.0000
  C   C12       1.0  0.50146  0.93681  0.29592  1.0000
  C   C13       1.0  0.48559  0.95702  0.27058  1.0000
  C   C14       1.0  0.45144  0.94316  0.24133  1.0000
  C   C15       1.0  0.43393  0.90981  0.23997  1.0000
  C   C16       1.0  0.83817  0.39948  0.22668  1.0000
  C   C17       1.0  0.60308  0.43691  0.24998  1.0000
  C   C18       1.0  0.56028  0.16666  0.21696  1.0000
  C   C19       1.0  0.54940  0.11105  0.24199  1.0000
  C   C20       1.0  0.51630  0.09178  0.29034  1.0000
  C   C21       1.0  0.49788  0.05733  0.30182  1.0000
  C   C22       1.0  0.51196  0.04089  0.26828  1.0000
  C   C23       1.0  0.54508  0.06000  0.22043  1.0000
  C   C24       1.0  0.56330  0.09432  0.20891  1.0000
  H   H1        1.0  0.15973  0.60984  0.34990  1.0000
  H   H2        1.0  0.11214  0.60779  0.21628  1.0000
  H   H3        1.0  0.10639  0.51199  0.25391  1.0000
  H   H4        1.0  0.05159  0.57907  0.23246  1.0000
  H   H5        1.0  0.04537  0.48333  0.26937  1.0000
  H   H6        1.0  0.38175  0.53591  0.24489  1.0000
  H   H7        1.0  0.46564  0.85110  0.19271  1.0000
  H   H8        1.0  0.49623  0.88756  0.32152  1.0000
  H   H9        1.0  0.40759  0.89812  0.21895  1.0000
  H   H10       1.0  0.52787  0.94846  0.31656  1.0000
  H   H11       1.0  0.43949  0.95919  0.21898  1.0000
  H   H12       1.0  0.84653  0.38712  0.17887  1.0000
  H   H13       1.0  0.62018  0.45968  0.28399  1.0000
  H   H14       1.0  0.53439  0.16105  0.19107  1.0000
  H   H15       1.0  0.50560  0.10316  0.32821  1.0000
  H   H16       1.0  0.58878  0.10965  0.17105  1.0000
  H   H17       1.0  0.47252  0.04185  0.34322  1.0000
  H   H18       1.0  0.55553  0.04731  0.19127  1.0000
  C   C25       1.0  0.35758  0.69847  0.26014  1.0000
  C   C26       1.0  0.30608  0.65530  0.25278  1.0000
  C   C27       1.0  0.35008  0.64881  0.24455  1.0000
  C   C28       1.0  0.64787  0.30054  0.25655  1.0000
  C   C29       1.0  0.69959  0.34356  0.25883  1.0000
  C   C30       1.0  0.65624  0.35141  0.26178  1.0000
  N   N13       1.0  0.37122  0.68032  0.25221  1.0000
  N   N14       1.0  0.32521  0.68699  0.26197  1.0000
  N   N15       1.0  0.31733  0.63537  0.24296  1.0000
  N   N16       1.0  0.63479  0.31973  0.25786  1.0000
  N   N17       1.0  0.68018  0.31110  0.25955  1.0000
  N   N18       1.0  0.68888  0.36468  0.26116  1.0000
  C   C31       1.0  0.37917  0.73365  0.26443  1.0000
  C   C32       1.0  0.27039  0.64150  0.25432  1.0000
  C   C33       1.0  0.24902  0.60966  0.23296  1.0000
  C   C34       1.0  0.36596  0.75217  0.28675  1.0000
  C   C35       1.0  0.21554  0.59654  0.23696  1.0000
  C   C36       1.0  0.38568  0.78616  0.27920  1.0000
  C   C37       1.0  0.20249  0.61422  0.26812  1.0000
  C   C38       1.0  0.41926  0.80305  0.24641  1.0000
  C   C39       1.0  0.22391  0.64579  0.29096  1.0000
  C   C40       1.0  0.43243  0.78444  0.22566  1.0000
  C   C41       1.0  0.25741  0.65965  0.28073  1.0000
  C   C42       1.0  0.41280  0.75001  0.23639  1.0000
  C   C43       1.0  0.62534  0.26606  0.24756  1.0000
  C   C44       1.0  0.64289  0.37325  0.26324  1.0000
  C   C45       1.0  0.60910  0.36295  0.23386  1.0000
  C   C46       1.0  0.63756  0.24386  0.25704  1.0000
  C   C47       1.0  0.59610  0.38385  0.22567  1.0000
  C   C48       1.0  0.61660  0.21147  0.24812  1.0000
  C   C49       1.0  0.61648  0.41532  0.25128  1.0000
  C   C50       1.0  0.58269  0.20050  0.22734  1.0000
  C   C51       1.0  0.65015  0.42525  0.28389  1.0000
  C   C52       1.0  0.57053  0.22276  0.21715  1.0000
  C   C53       1.0  0.66336  0.40463  0.28885  1.0000
  C   C54       1.0  0.59152  0.25514  0.22759  1.0000
  H   H19       1.0  0.25926  0.59592  0.21152  1.0000
  H   H20       1.0  0.33991  0.73934  0.30830  1.0000
  H   H21       1.0  0.19870  0.57234  0.21814  1.0000
  H   H22       1.0  0.37579  0.80052  0.29810  1.0000
  H   H23       1.0  0.21406  0.65920  0.31900  1.0000
  H   H24       1.0  0.45826  0.79753  0.19822  1.0000
  H   H25       1.0  0.27413  0.68396  0.29905  1.0000
  H   H26       1.0  0.42285  0.73599  0.21585  1.0000
  H   H27       1.0  0.59372  0.33868  0.21363  1.0000
  H   H28       1.0  0.66377  0.25286  0.27120  1.0000
  H   H29       1.0  0.57019  0.37668  0.19925  1.0000
  H   H30       1.0  0.62553  0.19396  0.25482  1.0000
  H   H31       1.0  0.66578  0.44916  0.30763  1.0000
  H   H32       1.0  0.54434  0.21436  0.20048  1.0000
  H   H33       1.0  0.68936  0.41227  0.31307  1.0000
  H   H34       1.0  0.58244  0.27247  0.22141  1.0000
  N   N19       1.0  0.14163  0.57598  0.73648  1.0000
  N   N20       1.0  0.42464  0.57076  0.75392  1.0000
  N   N21       1.0  0.43114  0.85464  0.77461  1.0000
  N   N22       1.0  0.85284  0.42707  0.77547  1.0000
  N   N23       1.0  0.56437  0.42583  0.72754  1.0000
  N   N24       1.0  0.57339  0.14425  0.73554  1.0000
  N   N25       1.0  0.00568  0.51453  0.76645  1.0000
  N   N26       1.0  0.47987  0.49025  0.75963  1.0000
  N   N27       1.0  0.51221  0.98903  0.78074  1.0000
  N   N28       1.0  0.98903  0.48463  0.75375  1.0000
  N   N29       1.0  0.51050  0.50659  0.72932  1.0000
  N   N30       1.0  0.49735  0.00544  0.77826  1.0000
  C   C55       1.0  0.16179  0.60457  0.76155  1.0000
  C   C56       1.0  0.10789  0.56224  0.74294  1.0000
  C   C57       1.0  0.09171  0.57704  0.77429  1.0000
  C   C58       1.0  0.05803  0.56051  0.78035  1.0000
  C   C59       1.0  0.03949  0.52865  0.75657  1.0000
  C   C60       1.0  0.05540  0.51355  0.72611  1.0000
  C   C61       1.0  0.08904  0.53035  0.71866  1.0000
  C   C62       1.0  0.39368  0.56141  0.74407  1.0000
  C   C63       1.0  0.43663  0.54919  0.75597  1.0000
  C   C64       1.0  0.41790  0.51654  0.73897  1.0000
  C   C65       1.0  0.43308  0.49785  0.74283  1.0000
  C   C66       1.0  0.46735  0.51127  0.76017  1.0000
  C   C67       1.0  0.48619  0.54383  0.77665  1.0000
  C   C68       1.0  0.47088  0.56207  0.77588  1.0000
  C   C69       1.0  0.44038  0.83761  0.73399  1.0000
  C   C70       1.0  0.45260  0.88796  0.77383  1.0000
  C   C71       1.0  0.48665  0.90024  0.80824  1.0000
  C   C72       1.0  0.50558  0.93386  0.80760  1.0000
  C   C73       1.0  0.49110  0.95564  0.77676  1.0000
  C   C74       1.0  0.45708  0.94325  0.74477  1.0000
  C   C75       1.0  0.43823  0.90980  0.74569  1.0000
  C   C76       1.0  0.83258  0.40276  0.71708  1.0000
  C   C77       1.0  0.59515  0.43415  0.75529  1.0000
  C   C78       1.0  0.56144  0.16486  0.71597  1.0000
  C   C79       1.0  0.55337  0.11029  0.74049  1.0000
  C   C80       1.0  0.52029  0.09001  0.79011  1.0000
  C   C81       1.0  0.50273  0.05556  0.80133  1.0000
  C   C82       1.0  0.51773  0.03996  0.76780  1.0000
  C   C83       1.0  0.55085  0.05988  0.72042  1.0000
  C   C84       1.0  0.56825  0.09447  0.70678  1.0000
  H   H35       1.0  0.15411  0.62056  0.78435  1.0000
  H   H36       1.0  0.10535  0.60111  0.79715  1.0000
  H   H37       1.0  0.10200  0.51963  0.69283  1.0000
  H   H38       1.0  0.04511  0.57123  0.80666  1.0000
  H   H39       1.0  0.04095  0.48931  0.70484  1.0000
  H   H40       1.0  0.37492  0.53650  0.73386  1.0000
  H   H41       1.0  0.39148  0.50568  0.72340  1.0000
  H   H42       1.0  0.48473  0.58670  0.79428  1.0000
  H   H43       1.0  0.41910  0.47269  0.73003  1.0000
  H   H44       1.0  0.51251  0.55359  0.79486  1.0000
  H   H45       1.0  0.46513  0.84922  0.68715  1.0000
  H   H46       1.0  0.49795  0.88314  0.83786  1.0000
  H   H47       1.0  0.41189  0.89927  0.72392  1.0000
  H   H48       1.0  0.53185  0.94397  0.83335  1.0000
  H   H49       1.0  0.44627  0.96032  0.72183  1.0000
  H   H50       1.0  0.84063  0.39250  0.65264  1.0000
  H   H51       1.0  0.61255  0.45674  0.79028  1.0000
  H   H52       1.0  0.53523  0.15784  0.69068  1.0000
  H   H53       1.0  0.50889  0.10074  0.82824  1.0000
  H   H54       1.0  0.59366  0.11054  0.66713  1.0000
  H   H55       1.0  0.47737  0.03944  0.84198  1.0000
  H   H56       1.0  0.56199  0.04782  0.69144  1.0000
  C   C85       1.0  0.35224  0.69857  0.75842  1.0000
  C   C86       1.0  0.30034  0.65579  0.75716  1.0000
  C   C87       1.0  0.34335  0.64800  0.74782  1.0000
  C   C88       1.0  0.64283  0.30008  0.75323  1.0000
  C   C89       1.0  0.69394  0.34376  0.76032  1.0000
  C   C90       1.0  0.64947  0.35016  0.75966  1.0000
  N   N31       1.0  0.36502  0.67964  0.75174  1.0000
  N   N32       1.0  0.32005  0.68800  0.75956  1.0000
  N   N33       1.0  0.31073  0.63479  0.75128  1.0000
  N   N34       1.0  0.62873  0.31856  0.75254  1.0000
  N   N35       1.0  0.67529  0.31149  0.75777  1.0000
  N   N36       1.0  0.68222  0.36394  0.76360  1.0000
  C   C91       1.0  0.63552  0.37175  0.75835  1.0000
  C   C92       1.0  0.60179  0.36164  0.72487  1.0000
  C   C93       1.0  0.58852  0.38214  0.71926  1.0000
  C   C94       1.0  0.60858  0.41309  0.75017  1.0000
  C   C95       1.0  0.64224  0.42303  0.78447  1.0000
  C   C96       1.0  0.65569  0.40277  0.78752  1.0000
  H   H57       1.0  0.58662  0.33762  0.70196  1.0000
  H   H58       1.0  0.56258  0.37491  0.69265  1.0000
  H   H59       1.0  0.65768  0.44637  0.81350  1.0000
  H   H60       1.0  0.68163  0.41012  0.81496  1.0000
  C   C97       1.0  0.62468  0.21901  0.74772  1.0000
  C   C98       1.0  0.59069  0.20063  0.74344  1.0000
  C  Sn1       1.0  0.57177  0.21650  0.73112  1.0000
  C  Sn2       1.0  0.58724  0.25142  0.72289  1.0000
  C   C99       1.0  0.62127  0.26959  0.72712  1.0000
  C   C100      1.0  0.63996  0.25346  0.73953  1.0000
  H   H61       1.0  0.63915  0.20655  0.75721  1.0000
  O  Te1       1.0  0.53784  0.19775  0.72707  1.0000
  O  Te2       1.0  0.56892  0.26791  0.71046  1.0000
  H   H62       1.0  0.66628  0.26771  0.74271  1.0000
  Mg  Mg1       1.0  0.52342  0.23154  0.70936  1.0000
  C   C101      1.0  0.93249  0.48988  0.77442  1.0000
  C   C102      1.0  0.95225  0.47604  0.77348  1.0000
  C  Sn3       1.0  0.93827  0.44340  0.76214  1.0000
  C  Sn4       1.0  0.90385  0.42434  0.75151  1.0000
  C   C103      1.0  0.88429  0.43843  0.75241  1.0000
  C   C104      1.0  0.89854  0.47111  0.76387  1.0000
  H   H63       1.0  0.94351  0.51517  0.78318  1.0000
  O  Te3       1.0  0.95837  0.42995  0.76144  1.0000
  O  Te4       1.0  0.88923  0.39168  0.74000  1.0000
  H   H64       1.0  0.88323  0.48183  0.76447  1.0000
  Mg  Mg2       1.0  0.92695  0.38436  0.74376  1.0000
  C   C105      1.0  0.76867  0.34673  0.72989  1.0000
  C   C106      1.0  0.79265  0.38047  0.71602  1.0000
  C  Sn5       1.0  0.78449  0.40324  0.73250  1.0000
  C  Sn6       1.0  0.75169  0.39194  0.76350  1.0000
  C   C107      1.0  0.72788  0.35813  0.77731  1.0000
  C   C108      1.0  0.73631  0.33556  0.76054  1.0000
  H   H65       1.0  0.77519  0.32925  0.71703  1.0000
  O  Te5       1.0  0.80875  0.43687  0.71821  1.0000
  O  Te6       1.0  0.74286  0.41416  0.78058  1.0000
  H   H66       1.0  0.71774  0.30942  0.77142  1.0000
  Mg  Mg3       1.0  0.78465  0.45754  0.75095  1.0000
  C   C109      1.0  0.37606  0.78001  0.77934  1.0000
  C   C110      1.0  0.40995  0.79780  0.76596  1.0000
  C  Sn7       1.0  0.42645  0.78304  0.73995  1.0000
  C  Sn8       1.0  0.40861  0.74984  0.72709  1.0000
  C   C111      1.0  0.37470  0.73226  0.74052  1.0000
  C   C112      1.0  0.35844  0.74727  0.76661  1.0000
  H   H67       1.0  0.36347  0.79163  0.79942  1.0000
  O  Te7       1.0  0.46032  0.80117  0.72693  1.0000
  O  Te8       1.0  0.42448  0.73448  0.70103  1.0000
  H   H68       1.0  0.33220  0.73349  0.77684  1.0000
  Mg  Mg4       1.0  0.47092  0.76941  0.69163  1.0000
  C   C113      1.0  0.91560  0.41968  0.28067  1.0000
  C   C114      1.0  0.89522  0.43257  0.28456  1.0000
  C  Sn9       1.0  0.90830  0.46706  0.27201  1.0000
  C  Sn10      1.0  0.94242  0.48900  0.25522  1.0000
  C   C115      1.0  0.96260  0.47587  0.25132  1.0000
  C   C116      1.0  0.94925  0.44130  0.26404  1.0000
  H   H69       1.0  0.90527  0.39295  0.29040  1.0000
  O  Te9       1.0  0.88759  0.47951  0.27618  1.0000
  O  Te10      1.0  0.95614  0.52358  0.24236  1.0000
  H   H70       1.0  0.96503  0.43134  0.26090  1.0000
  Mg  Mg5       1.0  0.91786  0.52851  0.25434  1.0000
  C   C117      1.0  0.34726  0.57518  0.22298  1.0000
  C   C118      1.0  0.37970  0.58193  0.22927  1.0000
  C  Sn11      1.0  0.40495  0.61210  0.25125  1.0000
  C  Sn12      1.0  0.39753  0.63591  0.26725  1.0000
  C   C119      1.0  0.36500  0.62891  0.26093  1.0000
  C   C120      1.0  0.33991  0.59864  0.23882  1.0000
  H   H71       1.0  0.32785  0.55176  0.20598  1.0000
  O  Te11      1.0  0.43723  0.61845  0.25718  1.0000
  O  Te12      1.0  0.42230  0.66626  0.28940  1.0000
  H   H72       1.0  0.31480  0.59341  0.23409  1.0000
  Mg  Mg6       1.0  0.46247  0.66340  0.28934  1.0000
  C   C121      1.0  0.48597  0.56285  0.28227  1.0000
  C   C122      1.0  0.45291  0.55495  0.25051  1.0000
  C  Sn13      1.0  0.43037  0.52386  0.22818  1.0000
  C  Sn14      1.0  0.44120  0.50027  0.23795  1.0000
  C   C123      1.0  0.47432  0.50840  0.26991  1.0000
  C   C124      1.0  0.49667  0.53959  0.29199  1.0000
  H   H73       1.0  0.50326  0.58697  0.29946  1.0000
  O  Te13      1.0  0.39743  0.51638  0.19648  1.0000
  O  Te14      1.0  0.41919  0.46901  0.21619  1.0000
  H   H74       1.0  0.52227  0.54569  0.31670  1.0000
  Mg  Mg7       1.0  0.37681  0.47048  0.17564  1.0000
  C   C125      1.0  0.51218  0.44254  0.27750  1.0000
  C   C126      1.0  0.52632  0.47849  0.24461  1.0000
  C  Sn15      1.0  0.55830  0.50152  0.18236  1.0000
  C  Sn16      1.0  0.57638  0.48825  0.15255  1.0000
  C   C127      1.0  0.56200  0.45225  0.18572  1.0000
  C   C128      1.0  0.52999  0.42943  0.24806  1.0000
  H   H75       1.0  0.48741  0.42488  0.32563  1.0000
  O  Te15      1.0  0.57206  0.53736  0.15026  1.0000
  O  Te16      1.0  0.60837  0.51069  0.09030  1.0000
  H   H76       1.0  0.51904  0.40161  0.27338  1.0000
  Mg  Mg8       1.0  0.61646  0.55744  0.06623  1.0000
  C   C129      1.0  0.21656  0.59576  0.75108  1.0000
  C   C130      1.0  0.19956  0.61069  0.77092  1.0000
  C  Sn17      1.0  0.21633  0.64393  0.77759  1.0000
  C  Sn18      1.0  0.25074  0.66250  0.76406  1.0000
  C   C131      1.0  0.26752  0.64734  0.74410  1.0000
  C   C132      1.0  0.25051  0.61407  0.73765  1.0000
  H   H77       1.0  0.20340  0.57002  0.74598  1.0000
  O  Te17      1.0  0.19897  0.65845  0.79754  1.0000
  O  Te18      1.0  0.26810  0.69576  0.77026  1.0000
  H   H78       1.0  0.26367  0.60252  0.72216  1.0000
  Mg  Mg9       1.0  0.23353  0.70451  0.79894  1.0000
  C   C133      1.0  0.75522  0.33729  0.23130  1.0000
  C   C134      1.0  0.73790  0.35080  0.26122  1.0000
  C  Sn19      1.0  0.75415  0.38393  0.26899  1.0000
  C  Sn20      1.0  0.78836  0.40384  0.24626  1.0000
  C   C135      1.0  0.80546  0.39010  0.21625  1.0000
  C   C136      1.0  0.78897  0.35692  0.20880  1.0000
  H   H79       1.0  0.74246  0.31163  0.22542  1.0000
  O  Te19      1.0  0.73647  0.39703  0.29907  1.0000
  O  Te20      1.0  0.80521  0.43703  0.25333  1.0000
  H   H80       1.0  0.80238  0.34648  0.18550  1.0000
  Mg  Mg10      1.0  0.77037  0.44356  0.29754  1.0000
  C   C137      1.0  0.57013  0.49319  0.65824  1.0000
  C   C138      1.0  0.55770  0.45620  0.71864  1.0000
  C  Sn21      1.0  0.52591  0.43302  0.78379  1.0000
  C  Sn22      1.0  0.50625  0.44720  0.78835  1.0000
  C   C139      1.0  0.51890  0.48425  0.72749  1.0000
  C   C140      1.0  0.55075  0.50720  0.66262  1.0000
  H   H81       1.0  0.59476  0.51095  0.60794  1.0000
  O  Te21      1.0  0.51387  0.39613  0.84368  1.0000
  O  Te22      1.0  0.47439  0.42464  0.85273  1.0000
  H   H82       1.0  0.56036  0.53584  0.61575  1.0000
  Mg  Mg11      1.0  0.46896  0.37630  0.91951  1.0000
  C   C141      1.0  0.34033  0.57481  0.72061  1.0000
  C   C142      1.0  0.37283  0.58184  0.72604  1.0000
  C  Sn23      1.0  0.39795  0.61194  0.74926  1.0000
  C  Sn24      1.0  0.39031  0.63540  0.76739  1.0000
  C   C143      1.0  0.35772  0.62812  0.76191  1.0000
  C   C144      1.0  0.33278  0.59792  0.73856  1.0000
  H   H83       1.0  0.32103  0.55144  0.70265  1.0000
  O  Te23      1.0  0.43028  0.61857  0.75430  1.0000
  O  Te24      1.0  0.41494  0.66567  0.79081  1.0000
  H   H84       1.0  0.30762  0.59247  0.73449  1.0000
  Mg  Mg12      1.0  0.45528  0.66329  0.78883  1.0000
