data_image0
_chemical_formula_structural       N12C6H6C6N18C6H6C6N6C2Sn2C2HTe2HMgC2Sn2C2HTe2HMgC2Sn2C2HTe2HMgC2Sn2C2HTe2HMgC2Sn2C2HTe2HMgC2Sn2C2HTe2HMgC2Sn2C2HTe2HMgC2Sn2C2HTe2HMgC2Sn2C2HTe2HMgC2Sn2C2HTe2HMgC2Sn2C2HTe2HMgC2Sn2C2HTe2HMgC2Sn2C2HTe2HMgC2Sn2C2HTe2HMgC2Sn2C2HTe2HMgC2Sn2C2HTe2HMgC2Sn2C2HTe2HMgC2Sn2C2HTe2HMgC2Sn2C2HTe2HMgC2Sn2C2HTe2HMgC2Sn2C2HTe2HMgC2Sn2C2HTe2HMgC2Sn2C2HTe2HMgC2Sn2C2HTe2HMg
_chemical_formula_sum              "N36 C120 H60 Sn48 Te48 Mg24"
_cell_length_a       47.4898
_cell_length_b       47.8092
_cell_length_c       8.06706
_cell_angle_alpha    59.7297
_cell_angle_beta     106.008
_cell_angle_gamma    120.182

_symmetry_space_group_name_H-M    'P1'
_space_group_IT_number       1

loop_
  _space_group_symop_operation_xyz
  'x, y, z'

loop_
  _atom_site_type_symbol
  _atom_site_label
  _atom_site_symmetry_multiplicity
  _atom_site_fract_x
  _atom_site_fract_y
  _atom_site_fract_z
  _atom_site_occupancy
  N   N1        1.0  0.14690  0.57474  0.22945  1.0000
  N   N2        1.0  0.43156  0.57152  0.25178  1.0000
  N   N3        1.0  0.42926  0.85551  0.26766  1.0000
  N   N4        1.0  0.85806  0.42582  0.27099  1.0000
  N   N5        1.0  0.57236  0.42885  0.21668  1.0000
  N   N6        1.0  0.57065  0.14477  0.23671  1.0000
  N   N7        1.0  0.01093  0.51662  0.25315  1.0000
  N   N8        1.0  0.48827  0.49310  0.25268  1.0000
  N   N9        1.0  0.50590  0.99037  0.27553  1.0000
  N   N10       1.0  0.99442  0.48431  0.27008  1.0000
  N   N11       1.0  0.51883  0.50982  0.22033  1.0000
  N   N12       1.0  0.49106  0.00630  0.27883  1.0000
  C   C1        1.0  0.16747  0.59949  0.28446  1.0000
  C   C2        1.0  0.40054  0.56145  0.24808  1.0000
  C   C3        1.0  0.44035  0.83904  0.23437  1.0000
  C   C4        1.0  0.83817  0.39948  0.22668  1.0000
  C   C5        1.0  0.60308  0.43691  0.24998  1.0000
  C   C6        1.0  0.56028  0.16666  0.21696  1.0000
  H   H1        1.0  0.15973  0.60984  0.34990  1.0000
  H   H2        1.0  0.38175  0.53591  0.24489  1.0000
  H   H3        1.0  0.46564  0.85110  0.19271  1.0000
  H   H4        1.0  0.84653  0.38712  0.17887  1.0000
  H   H5        1.0  0.62018  0.45968  0.28399  1.0000
  H   H6        1.0  0.53439  0.16105  0.19107  1.0000
  C   C7        1.0  0.35758  0.69847  0.26014  1.0000
  C   C8        1.0  0.30608  0.65530  0.25278  1.0000
  C   C9        1.0  0.35008  0.64881  0.24455  1.0000
  C   C10       1.0  0.64787  0.30054  0.25655  1.0000
  C   C11       1.0  0.69959  0.34356  0.25883  1.0000
  C   C12       1.0  0.65624  0.35141  0.26178  1.0000
  N   N13       1.0  0.37122  0.68032  0.25221  1.0000
  N   N14       1.0  0.32521  0.68699  0.26197  1.0000
  N   N15       1.0  0.31733  0.63537  0.24296  1.0000
  N   N16       1.0  0.63479  0.31973  0.25786  1.0000
  N   N17       1.0  0.68018  0.31110  0.25955  1.0000
  N   N18       1.0  0.68888  0.36468  0.26116  1.0000
  N   N19       1.0  0.14163  0.57598  0.73648  1.0000
  N   N20       1.0  0.42464  0.57076  0.75392  1.0000
  N   N21       1.0  0.43114  0.85464  0.77461  1.0000
  N   N22       1.0  0.85284  0.42707  0.77547  1.0000
  N   N23       1.0  0.56437  0.42583  0.72754  1.0000
  N   N24       1.0  0.57339  0.14425  0.73554  1.0000
  N   N25       1.0  0.00568  0.51453  0.76645  1.0000
  N   N26       1.0  0.47987  0.49025  0.75963  1.0000
  N   N27       1.0  0.51221  0.98903  0.78074  1.0000
  N   N28       1.0  0.98903  0.48463  0.75375  1.0000
  N   N29       1.0  0.51050  0.50659  0.72932  1.0000
  N   N30       1.0  0.49735  0.00544  0.77826  1.0000
  C   C13       1.0  0.16179  0.60457  0.76155  1.0000
  C   C14       1.0  0.39368  0.56141  0.74407  1.0000
  C   C15       1.0  0.44038  0.83761  0.73399  1.0000
  C   C16       1.0  0.83258  0.40276  0.71708  1.0000
  C   C17       1.0  0.59515  0.43415  0.75529  1.0000
  C   C18       1.0  0.56144  0.16486  0.71597  1.0000
  H   H7        1.0  0.15411  0.62056  0.78435  1.0000
  H   H8        1.0  0.37492  0.53650  0.73386  1.0000
  H   H9        1.0  0.46513  0.84922  0.68715  1.0000
  H   H10       1.0  0.84063  0.39250  0.65264  1.0000
  H   H11       1.0  0.61255  0.45674  0.79028  1.0000
  H   H12       1.0  0.53523  0.15784  0.69068  1.0000
  C   C19       1.0  0.35224  0.69857  0.75842  1.0000
  C   C20       1.0  0.30034  0.65579  0.75716  1.0000
  C   C21       1.0  0.34335  0.64800  0.74782  1.0000
  C   C22       1.0  0.64283  0.30008  0.75323  1.0000
  C   C23       1.0  0.69394  0.34376  0.76032  1.0000
  C   C24       1.0  0.64947  0.35016  0.75966  1.0000
  N   N31       1.0  0.36502  0.67964  0.75174  1.0000
  N   N32       1.0  0.32005  0.68800  0.75956  1.0000
  N   N33       1.0  0.31073  0.63479  0.75128  1.0000
  N   N34       1.0  0.62873  0.31856  0.75254  1.0000
  N   N35       1.0  0.67529  0.31149  0.75777  1.0000
  N   N36       1.0  0.68222  0.36394  0.76360  1.0000
  C   C25       1.0  0.06778  0.50974  0.25643  1.0000
  C   C26       1.0  0.04817  0.52285  0.26710  1.0000
  C  Sn1       1.0  0.06195  0.55745  0.25435  1.0000
  C  Sn2       1.0  0.09600  0.57927  0.23042  1.0000
  C   C27       1.0  0.11540  0.56591  0.21977  1.0000
  C   C28       1.0  0.10136  0.53125  0.23275  1.0000
  H   H13       1.0  0.05692  0.48293  0.26637  1.0000
  O  Te1       1.0  0.04200  0.57012  0.26535  1.0000
  O  Te2       1.0  0.11040  0.61395  0.21719  1.0000
  H   H14       1.0  0.11655  0.52112  0.22436  1.0000
  Mg  Mg1       1.0  0.07303  0.61919  0.24004  1.0000
  C   C29       1.0  0.42497  0.51036  0.22829  1.0000
  C   C30       1.0  0.43822  0.54108  0.25801  1.0000
  C  Sn3       1.0  0.47190  0.55935  0.28146  1.0000
  C  Sn4       1.0  0.49264  0.54657  0.27491  1.0000
  C   C31       1.0  0.47915  0.51582  0.24497  1.0000
  C   C32       1.0  0.44541  0.49774  0.22174  1.0000
  H   H15       1.0  0.39887  0.49638  0.21021  1.0000
  O  Te3       1.0  0.48473  0.58999  0.31110  1.0000
  O  Te4       1.0  0.52639  0.56431  0.29784  1.0000
  H   H16       1.0  0.43517  0.47398  0.19861  1.0000
  Mg  Mg2       1.0  0.53227  0.60489  0.33466  1.0000
  C   C33       1.0  0.50140  0.92822  0.30626  1.0000
  C   C34       1.0  0.49046  0.95339  0.26412  1.0000
  C  Sn5       1.0  0.45725  0.94471  0.23217  1.0000
  C  Sn6       1.0  0.43463  0.91017  0.24276  1.0000
  C   C35       1.0  0.44582  0.88517  0.28514  1.0000
  C   C36       1.0  0.47911  0.89414  0.31680  1.0000
  H   H17       1.0  0.52716  0.93515  0.33086  1.0000
  O  Te5       1.0  0.44673  0.97018  0.19016  1.0000
  O  Te6       1.0  0.40130  0.90079  0.21152  1.0000
  H   H18       1.0  0.48757  0.87463  0.34955  1.0000
  Mg  Mg3       1.0  0.39887  0.94471  0.15879  1.0000
  C   C37       1.0  0.93668  0.49136  0.24943  1.0000
  C   C38       1.0  0.95725  0.47640  0.27473  1.0000
  C  Sn7       1.0  0.94419  0.44167  0.29064  1.0000
  C  Sn8       1.0  0.90989  0.42161  0.28094  1.0000
  C   C39       1.0  0.88953  0.43683  0.25546  1.0000
  C   C40       1.0  0.90285  0.47160  0.23977  1.0000
  H   H19       1.0  0.94699  0.51827  0.23718  1.0000
  O  Te7       1.0  0.96509  0.42712  0.31594  1.0000
  O  Te8       1.0  0.89619  0.38684  0.29635  1.0000
  H   H20       1.0  0.88692  0.48319  0.22006  1.0000
  Mg  Mg4       1.0  0.93477  0.37870  0.32954  1.0000
  C   C41       1.0  0.57831  0.49653  0.14478  1.0000
  C   C42       1.0  0.56580  0.45955  0.20456  1.0000
  C  Sn9       1.0  0.53402  0.43640  0.26986  1.0000
  C  Sn10      1.0  0.51445  0.45061  0.27521  1.0000
  C   C43       1.0  0.52718  0.48764  0.21497  1.0000
  C   C44       1.0  0.55902  0.51056  0.14994  1.0000
  H   H21       1.0  0.60294  0.51427  0.09437  1.0000
  O  Te9       1.0  0.52191  0.39953  0.32912  1.0000
  O  Te10      1.0  0.48259  0.42808  0.33976  1.0000
  H   H22       1.0  0.56869  0.53919  0.10355  1.0000
  Mg  Mg5       1.0  0.47704  0.37974  0.40548  1.0000
  C   C45       1.0  0.55285  0.06851  0.20574  1.0000
  C   C46       1.0  0.52095  0.04411  0.26676  1.0000
  C  Sn11      1.0  0.50230  0.05432  0.31222  1.0000
  C  Sn12      1.0  0.51589  0.08963  0.29611  1.0000
  C   C47       1.0  0.54781  0.11385  0.23480  1.0000
  C   C48       1.0  0.56626  0.10335  0.18973  1.0000
  H   H23       1.0  0.56712  0.06040  0.17076  1.0000
  O  Te11      1.0  0.47048  0.02960  0.37303  1.0000
  O  Te12      1.0  0.49778  0.10054  0.34056  1.0000
  H   H24       1.0  0.59095  0.12226  0.14237  1.0000
  Mg  Mg6       1.0  0.45550  0.05715  0.41720  1.0000
  C   C49       1.0  0.24072  0.60218  0.23423  1.0000
  C   C50       1.0  0.26561  0.63383  0.24272  1.0000
  C  Sn13      1.0  0.25831  0.65578  0.27302  1.0000
  C  Sn14      1.0  0.22546  0.64578  0.29523  1.0000
  C   C51       1.0  0.20073  0.61406  0.28665  1.0000
  C   C52       1.0  0.20830  0.59230  0.25620  1.0000
  H   H25       1.0  0.24657  0.58534  0.21078  1.0000
  O  Te13      1.0  0.28348  0.68731  0.28104  1.0000
  O  Te14      1.0  0.21748  0.66722  0.32575  1.0000
  H   H26       1.0  0.18902  0.56778  0.24976  1.0000
  Mg  Mg7       1.0  0.26034  0.70764  0.32544  1.0000
  C   C53       1.0  0.34726  0.57518  0.22298  1.0000
  C   C54       1.0  0.37970  0.58193  0.22927  1.0000
  C  Sn15      1.0  0.40495  0.61210  0.25125  1.0000
  C  Sn16      1.0  0.39753  0.63591  0.26725  1.0000
  C   C55       1.0  0.36500  0.62891  0.26093  1.0000
  C   C56       1.0  0.33991  0.59864  0.23882  1.0000
  H   H27       1.0  0.32785  0.55176  0.20598  1.0000
  O  Te15      1.0  0.43723  0.61845  0.25718  1.0000
  O  Te16      1.0  0.42230  0.66626  0.28940  1.0000
  H   H28       1.0  0.31480  0.59341  0.23409  1.0000
  Mg  Mg8       1.0  0.46247  0.66340  0.28934  1.0000
  C   C57       1.0  0.43187  0.77610  0.22873  1.0000
  C   C58       1.0  0.42301  0.79968  0.23117  1.0000
  C  Sn17      1.0  0.39072  0.78869  0.26110  1.0000
  C  Sn18      1.0  0.36691  0.75341  0.28912  1.0000
  C   C59       1.0  0.37603  0.73001  0.28657  1.0000
  C   C60       1.0  0.40841  0.74129  0.25644  1.0000
  H   H29       1.0  0.45693  0.78482  0.20553  1.0000
  O  Te17      1.0  0.38228  0.81260  0.26302  1.0000
  O  Te18      1.0  0.33447  0.74172  0.31941  1.0000
  H   H30       1.0  0.41527  0.72302  0.25469  1.0000
  Mg  Mg9       1.0  0.33493  0.78417  0.30964  1.0000
  C   C61       1.0  0.75522  0.33729  0.23130  1.0000
  C   C62       1.0  0.73790  0.35080  0.26122  1.0000
  C  Sn19      1.0  0.75415  0.38393  0.26899  1.0000
  C  Sn20      1.0  0.78836  0.40384  0.24626  1.0000
  C   C63       1.0  0.80546  0.39010  0.21625  1.0000
  C   C64       1.0  0.78897  0.35692  0.20880  1.0000
  H   H31       1.0  0.74246  0.31163  0.22542  1.0000
  O  Te19      1.0  0.73647  0.39703  0.29907  1.0000
  O  Te20      1.0  0.80521  0.43703  0.25333  1.0000
  H   H32       1.0  0.80238  0.34648  0.18550  1.0000
  Mg  Mg10      1.0  0.77037  0.44356  0.29754  1.0000
  C   C65       1.0  0.66489  0.41318  0.28812  1.0000
  C   C66       1.0  0.64865  0.38033  0.27718  1.0000
  C  Sn21      1.0  0.61491  0.36537  0.24485  1.0000
  C  Sn22      1.0  0.59717  0.38369  0.22307  1.0000
  C   C67       1.0  0.61366  0.41655  0.23412  1.0000
  C   C68       1.0  0.64742  0.43128  0.26659  1.0000
  H   H33       1.0  0.69102  0.42458  0.31313  1.0000
  O  Te21      1.0  0.59906  0.33252  0.23439  1.0000
  O  Te22      1.0  0.56344  0.36935  0.19056  1.0000
  H   H34       1.0  0.66000  0.45672  0.27493  1.0000
  Mg  Mg11      1.0  0.55282  0.32388  0.18788  1.0000
  C   C69       1.0  0.63642  0.23510  0.26256  1.0000
  C   C70       1.0  0.62936  0.26193  0.23980  1.0000
  C  Sn23      1.0  0.59707  0.25662  0.21830  1.0000
  C  Sn24      1.0  0.57143  0.22380  0.21971  1.0000
  C   C71       1.0  0.57874  0.19712  0.24270  1.0000
  C   C72       1.0  0.61114  0.20272  0.26405  1.0000
  H   H35       1.0  0.66148  0.23942  0.27918  1.0000
  O  Te23      1.0  0.59045  0.28371  0.19564  1.0000
  O  Te24      1.0  0.53894  0.21778  0.19858  1.0000
  H   H36       1.0  0.61660  0.18193  0.28179  1.0000
  Mg  Mg12      1.0  0.54227  0.26284  0.17195  1.0000
  C   C73       1.0  0.08412  0.57751  0.77517  1.0000
  C   C74       1.0  0.10472  0.56592  0.76059  1.0000
  C  Sn25      1.0  0.09170  0.53499  0.73318  1.0000
  C  Sn26      1.0  0.05739  0.51537  0.72013  1.0000
  C   C75       1.0  0.03699  0.52720  0.73476  1.0000
  C   C76       1.0  0.05028  0.55818  0.76224  1.0000
  H   H37       1.0  0.09440  0.60148  0.79632  1.0000
  O  Te25      1.0  0.11263  0.52378  0.71899  1.0000
  O  Te26      1.0  0.04373  0.48437  0.69269  1.0000
  H   H38       1.0  0.03432  0.56716  0.77339  1.0000
  Mg  Mg13      1.0  0.08235  0.47987  0.68202  1.0000
  C   C77       1.0  0.48703  0.55221  0.77475  1.0000
  C   C78       1.0  0.47301  0.51882  0.77179  1.0000
  C  Sn27      1.0  0.43924  0.50058  0.75188  1.0000
  C  Sn28      1.0  0.41918  0.51614  0.73458  1.0000
  C   C79       1.0  0.43345  0.54956  0.73756  1.0000
  C   C80       1.0  0.46728  0.56757  0.75762  1.0000
  H   H39       1.0  0.51321  0.56615  0.79016  1.0000
  O  Te27      1.0  0.42563  0.46724  0.74927  1.0000
  O  Te28      1.0  0.38536  0.49850  0.71444  1.0000
  H   H40       1.0  0.47812  0.59343  0.75978  1.0000
  Mg  Mg14      1.0  0.37829  0.45363  0.71886  1.0000
  C   C81       1.0  0.50510  0.92504  0.81836  1.0000
  C   C82       1.0  0.98955  0.95152  0.77367  1.0000
  C  Sn29      1.0  0.95671  0.94456  0.73821  1.0000
  C  Sn30      1.0  0.43905  0.91042  0.74784  1.0000
  C   C83       1.0  0.44872  0.88410  0.79280  1.0000
  C   C84       1.0  0.48164  0.89136  0.82796  1.0000
  H   H41       1.0  0.02444  0.93065  0.84567  1.0000
  O  Te29      1.0  0.94773  0.97132  0.69368  1.0000
  O  Te30      1.0  0.40607  0.90273  0.71312  1.0000
  H   H42       1.0  0.48892  0.87084  0.86268  1.0000
  Mg  Mg15      1.0  0.89977  0.94797  0.65791  1.0000
  C   C85       1.0  0.93249  0.48988  0.77442  1.0000
  C   C86       1.0  0.95225  0.47604  0.77348  1.0000
  C  Sn31      1.0  0.93827  0.44340  0.76214  1.0000
  C  Sn32      1.0  0.90385  0.42434  0.75151  1.0000
  C   C87       1.0  0.88429  0.43843  0.75241  1.0000
  C   C88       1.0  0.89854  0.47111  0.76387  1.0000
  H   H43       1.0  0.94351  0.51517  0.78318  1.0000
  O  Te31      1.0  0.95837  0.42995  0.76144  1.0000
  O  Te32      1.0  0.88923  0.39168  0.74000  1.0000
  H   H44       1.0  0.88323  0.48183  0.76447  1.0000
  Mg  Mg16      1.0  0.92695  0.38436  0.74376  1.0000
  C   C89       1.0  0.51252  0.42865  0.79938  1.0000
  C   C90       1.0  0.54310  0.44204  0.73311  1.0000
  C  Sn33      1.0  0.56463  0.47857  0.67126  1.0000
  C  Sn34      1.0  0.55531  0.50207  0.67606  1.0000
  C   C91       1.0  0.52467  0.48841  0.74274  1.0000
  C   C92       1.0  0.50332  0.45181  0.80423  1.0000
  H   H45       1.0  0.49600  0.40033  0.84707  1.0000
  O  Te33      1.0  0.59508  0.49149  0.60541  1.0000
  O  Te34      1.0  0.57636  0.53869  0.61515  1.0000
  H   H46       1.0  0.47965  0.44145  0.85565  1.0000
  Mg  Mg17      1.0  0.61525  0.54351  0.53755  1.0000
  C   C93       1.0  0.55845  0.06857  0.70509  1.0000
  C   C94       1.0  0.52683  0.04327  0.76834  1.0000
  C  Sn35      1.0  0.50739  0.05256  0.81418  1.0000
  C  Sn36      1.0  0.51991  0.08785  0.79616  1.0000
  C   C95       1.0  0.55158  0.11297  0.73262  1.0000
  C   C96       1.0  0.57082  0.10338  0.68720  1.0000
  H   H47       1.0  0.57334  0.06116  0.66984  1.0000
  O  Te35      1.0  0.47585  0.02696  0.87724  1.0000
  O  Te36      1.0  0.50101  0.09786  0.84094  1.0000
  H   H48       1.0  0.59530  0.12298  0.63811  1.0000
  Mg  Mg18      1.0  0.45951  0.05346  0.92097  1.0000
  C   C97       1.0  0.23478  0.60160  0.76116  1.0000
  C   C98       1.0  0.25986  0.63470  0.75030  1.0000
  C  Sn37      1.0  0.25286  0.65943  0.75446  1.0000
  C  Sn38      1.0  0.22011  0.65079  0.76985  1.0000
  C   C99       1.0  0.19519  0.61760  0.78077  1.0000
  C   C100      1.0  0.20248  0.59305  0.77642  1.0000
  H   H49       1.0  0.24041  0.58260  0.75790  1.0000
  O  Te37      1.0  0.27821  0.69238  0.74339  1.0000
  O  Te38      1.0  0.21243  0.67501  0.77439  1.0000
  H   H50       1.0  0.18305  0.56742  0.78496  1.0000
  Mg  Mg19      1.0  0.25544  0.71648  0.75510  1.0000
  C   C101      1.0  0.34033  0.57481  0.72061  1.0000
  C   C102      1.0  0.37283  0.58184  0.72604  1.0000
  C  Sn39      1.0  0.39795  0.61194  0.74926  1.0000
  C  Sn40      1.0  0.39031  0.63540  0.76739  1.0000
  C   C103      1.0  0.35772  0.62812  0.76191  1.0000
  C   C104      1.0  0.33278  0.59792  0.73856  1.0000
  H   H51       1.0  0.32103  0.55144  0.70265  1.0000
  O  Te39      1.0  0.43028  0.61857  0.75430  1.0000
  O  Te40      1.0  0.41494  0.66567  0.79081  1.0000
  H   H52       1.0  0.30762  0.59247  0.73449  1.0000
  Mg  Mg20      1.0  0.45528  0.66329  0.78883  1.0000
  C   C105      1.0  0.42840  0.77368  0.72491  1.0000
  C   C106      1.0  0.42133  0.79845  0.72827  1.0000
  C  Sn41      1.0  0.38962  0.78907  0.75996  1.0000
  C  Sn42      1.0  0.36457  0.75423  0.78882  1.0000
  C   C107      1.0  0.37190  0.72964  0.78532  1.0000
  C   C108      1.0  0.40371  0.73930  0.75343  1.0000
  H   H53       1.0  0.45301  0.78115  0.70034  1.0000
  O  Te41      1.0  0.38297  0.81415  0.76280  1.0000
  O  Te42      1.0  0.33267  0.74415  0.82085  1.0000
  H   H54       1.0  0.40918  0.72011  0.75096  1.0000
  Mg  Mg21      1.0  0.33572  0.78775  0.81178  1.0000
  C   C109      1.0  0.76867  0.34673  0.72989  1.0000
  C   C110      1.0  0.79265  0.38047  0.71602  1.0000
  C  Sn43      1.0  0.78449  0.40324  0.73250  1.0000
  C  Sn44      1.0  0.75169  0.39194  0.76350  1.0000
  C   C111      1.0  0.72788  0.35813  0.77731  1.0000
  C   C112      1.0  0.73631  0.33556  0.76054  1.0000
  H   H55       1.0  0.77519  0.32925  0.71703  1.0000
  O  Te43      1.0  0.80875  0.43687  0.71821  1.0000
  O  Te44      1.0  0.74286  0.41416  0.78058  1.0000
  H   H56       1.0  0.71774  0.30942  0.77142  1.0000
  Mg  Mg22      1.0  0.78465  0.45754  0.75095  1.0000
  C   C113      1.0  0.64950  0.42122  0.79486  1.0000
  C   C114      1.0  0.61747  0.41719  0.75127  1.0000
  C  Sn45      1.0  0.59329  0.38811  0.71543  1.0000
  C  Sn46      1.0  0.60139  0.36264  0.72353  1.0000
  C   C115      1.0  0.63350  0.36689  0.76740  1.0000
  C   C116      1.0  0.65751  0.39610  0.80295  1.0000
  H   H57       1.0  0.66808  0.44381  0.82247  1.0000
  O  Te45      1.0  0.56141  0.38450  0.67202  1.0000
  O  Te46      1.0  0.57770  0.33331  0.68840  1.0000
  H   H58       1.0  0.68230  0.39920  0.83682  1.0000
  Mg  Mg23      1.0  0.53769  0.34003  0.63512  1.0000
  C   C117      1.0  0.56864  0.22758  0.71864  1.0000
  C   C118      1.0  0.57797  0.20479  0.71117  1.0000
  C  Sn47      1.0  0.61084  0.21222  0.73013  1.0000
  C  Sn48      1.0  0.63476  0.24304  0.75711  1.0000
  C   C119      1.0  0.62517  0.26566  0.76451  1.0000
  C   C120      1.0  0.59221  0.25798  0.74531  1.0000
  H   H59       1.0  0.54314  0.22163  0.70389  1.0000
  O  Te47      1.0  0.61974  0.18918  0.72226  1.0000
  O  Te48      1.0  0.66778  0.25109  0.77654  1.0000
  H   H60       1.0  0.58499  0.27561  0.75123  1.0000
  Mg  Mg24      1.0  0.66780  0.21155  0.75598  1.0000
