data_image0
_chemical_formula_structural       N12C24H18C6N6C24H16N12C24H18C6N6C12H8SnCSn2CSnTe4Mg2SnCSn2CSnTe4Mg2SnCSn2CSnTe4Mg2SnCSn2CSnTe4Mg2SnCSn2CSnTe4Mg2SnCSn2CSnTe4Mg2SnCSn2CSnTe4Mg2SnCSn2CSnTe4Mg2SnCSn2CSnTe4Mg2SnCSn2CSnTe4Mg2SnCSn2CSnTe4Mg2SnCSn2CSnTe4Mg2
_chemical_formula_sum              "N36 C120 H60 Sn48 Te48 Mg24"
_cell_length_a       47.4898
_cell_length_b       47.8092
_cell_length_c       8.06706
_cell_angle_alpha    59.7297
_cell_angle_beta     106.008
_cell_angle_gamma    120.182

_symmetry_space_group_name_H-M    'P1'
_space_group_IT_number       1

loop_
  _space_group_symop_operation_xyz
  'x, y, z'

loop_
  _atom_site_type_symbol
  _atom_site_label
  _atom_site_symmetry_multiplicity
  _atom_site_fract_x
  _atom_site_fract_y
  _atom_site_fract_z
  _atom_site_occupancy
  N   N1        1.0  0.14690  0.57474  0.22945  1.0000
  N   N2        1.0  0.43156  0.57152  0.25178  1.0000
  N   N3        1.0  0.42926  0.85551  0.26766  1.0000
  N   N4        1.0  0.85806  0.42582  0.27099  1.0000
  N   N5        1.0  0.57236  0.42885  0.21668  1.0000
  N   N6        1.0  0.57065  0.14477  0.23671  1.0000
  N   N7        1.0  0.01093  0.51662  0.25315  1.0000
  N   N8        1.0  0.48827  0.49310  0.25268  1.0000
  N   N9        1.0  0.50590  0.99037  0.27553  1.0000
  N   N10       1.0  0.99442  0.48431  0.27008  1.0000
  N   N11       1.0  0.51883  0.50982  0.22033  1.0000
  N   N12       1.0  0.49106  0.00630  0.27883  1.0000
  C   C1        1.0  0.16747  0.59949  0.28446  1.0000
  C   C2        1.0  0.40054  0.56145  0.24808  1.0000
  C   C3        1.0  0.44394  0.55037  0.25318  1.0000
  C   C4        1.0  0.42557  0.51777  0.23573  1.0000
  C   C5        1.0  0.44116  0.49955  0.23932  1.0000
  C   C6        1.0  0.47542  0.51353  0.25581  1.0000
  C   C7        1.0  0.49395  0.54589  0.27469  1.0000
  C   C8        1.0  0.47822  0.56368  0.27410  1.0000
  C   C9        1.0  0.44035  0.83904  0.23437  1.0000
  C   C10       1.0  0.44946  0.88919  0.26609  1.0000
  C   C11       1.0  0.48364  0.90309  0.29701  1.0000
  C   C12       1.0  0.50146  0.93681  0.29592  1.0000
  C   C13       1.0  0.48559  0.95702  0.27058  1.0000
  C   C14       1.0  0.45144  0.94316  0.24133  1.0000
  C   C15       1.0  0.43393  0.90981  0.23997  1.0000
  C   C16       1.0  0.83817  0.39948  0.22668  1.0000
  C   C17       1.0  0.60308  0.43691  0.24998  1.0000
  C   C18       1.0  0.56028  0.16666  0.21696  1.0000
  C   C19       1.0  0.54940  0.11105  0.24199  1.0000
  C   C20       1.0  0.51630  0.09178  0.29034  1.0000
  C   C21       1.0  0.49788  0.05733  0.30182  1.0000
  C   C22       1.0  0.51196  0.04089  0.26828  1.0000
  C   C23       1.0  0.54508  0.06000  0.22043  1.0000
  C   C24       1.0  0.56330  0.09432  0.20891  1.0000
  H   H1        1.0  0.15973  0.60984  0.34990  1.0000
  H   H2        1.0  0.38175  0.53591  0.24489  1.0000
  H   H3        1.0  0.39918  0.50686  0.21800  1.0000
  H   H4        1.0  0.49161  0.58839  0.29174  1.0000
  H   H5        1.0  0.42760  0.47461  0.22411  1.0000
  H   H6        1.0  0.52029  0.55605  0.29177  1.0000
  H   H7        1.0  0.46564  0.85110  0.19271  1.0000
  H   H8        1.0  0.49623  0.88756  0.32152  1.0000
  H   H9        1.0  0.40759  0.89812  0.21895  1.0000
  H   H10       1.0  0.52787  0.94846  0.31656  1.0000
  H   H11       1.0  0.43949  0.95919  0.21898  1.0000
  H   H12       1.0  0.84653  0.38712  0.17887  1.0000
  H   H13       1.0  0.62018  0.45968  0.28399  1.0000
  H   H14       1.0  0.53439  0.16105  0.19107  1.0000
  H   H15       1.0  0.50560  0.10316  0.32821  1.0000
  H   H16       1.0  0.58878  0.10965  0.17105  1.0000
  H   H17       1.0  0.47252  0.04185  0.34322  1.0000
  H   H18       1.0  0.55553  0.04731  0.19127  1.0000
  C   C25       1.0  0.35758  0.69847  0.26014  1.0000
  C   C26       1.0  0.30608  0.65530  0.25278  1.0000
  C   C27       1.0  0.35008  0.64881  0.24455  1.0000
  C   C28       1.0  0.64787  0.30054  0.25655  1.0000
  C   C29       1.0  0.69959  0.34356  0.25883  1.0000
  C   C30       1.0  0.65624  0.35141  0.26178  1.0000
  N   N13       1.0  0.37122  0.68032  0.25221  1.0000
  N   N14       1.0  0.32521  0.68699  0.26197  1.0000
  N   N15       1.0  0.31733  0.63537  0.24296  1.0000
  N   N16       1.0  0.63479  0.31973  0.25786  1.0000
  N   N17       1.0  0.68018  0.31110  0.25955  1.0000
  N   N18       1.0  0.68888  0.36468  0.26116  1.0000
  C   C31       1.0  0.37917  0.73365  0.26443  1.0000
  C   C32       1.0  0.36338  0.62708  0.24043  1.0000
  C   C33       1.0  0.39721  0.63736  0.26170  1.0000
  C   C34       1.0  0.36596  0.75217  0.28675  1.0000
  C   C35       1.0  0.40944  0.61623  0.26417  1.0000
  C   C36       1.0  0.38568  0.78616  0.27920  1.0000
  C   C37       1.0  0.38827  0.58414  0.24523  1.0000
  C   C38       1.0  0.41926  0.80305  0.24641  1.0000
  C   C39       1.0  0.35457  0.57425  0.22188  1.0000
  C   C40       1.0  0.43243  0.78444  0.22566  1.0000
  C   C41       1.0  0.34217  0.59533  0.21914  1.0000
  C   C42       1.0  0.41280  0.75001  0.23639  1.0000
  C   C43       1.0  0.62534  0.26606  0.24756  1.0000
  C   C44       1.0  0.64289  0.37325  0.26324  1.0000
  C   C45       1.0  0.60910  0.36295  0.23386  1.0000
  C   C46       1.0  0.63756  0.24386  0.25704  1.0000
  C   C47       1.0  0.59610  0.38385  0.22567  1.0000
  C   C48       1.0  0.61660  0.21147  0.24812  1.0000
  C   C49       1.0  0.61648  0.41532  0.25128  1.0000
  C   C50       1.0  0.58269  0.20050  0.22734  1.0000
  C   C51       1.0  0.65015  0.42525  0.28389  1.0000
  C   C52       1.0  0.57053  0.22276  0.21715  1.0000
  C   C53       1.0  0.66336  0.40463  0.28885  1.0000
  C   C54       1.0  0.59152  0.25514  0.22759  1.0000
  H   H19       1.0  0.41329  0.66187  0.27922  1.0000
  H   H20       1.0  0.33991  0.73934  0.30830  1.0000
  H   H21       1.0  0.43538  0.62354  0.28318  1.0000
  H   H22       1.0  0.37579  0.80052  0.29810  1.0000
  H   H23       1.0  0.33819  0.54998  0.20239  1.0000
  H   H24       1.0  0.45826  0.79753  0.19822  1.0000
  H   H25       1.0  0.31615  0.58787  0.19969  1.0000
  H   H26       1.0  0.42285  0.73599  0.21585  1.0000
  H   H27       1.0  0.59372  0.33868  0.21363  1.0000
  H   H28       1.0  0.66377  0.25286  0.27120  1.0000
  H   H29       1.0  0.57019  0.37668  0.19925  1.0000
  H   H30       1.0  0.62553  0.19396  0.25482  1.0000
  H   H31       1.0  0.66578  0.44916  0.30763  1.0000
  H   H32       1.0  0.54434  0.21436  0.20048  1.0000
  H   H33       1.0  0.68936  0.41227  0.31307  1.0000
  H   H34       1.0  0.58244  0.27247  0.22141  1.0000
  N   N19       1.0  0.14163  0.57598  0.73648  1.0000
  N   N20       1.0  0.42464  0.57076  0.75392  1.0000
  N   N21       1.0  0.43114  0.85464  0.77461  1.0000
  N   N22       1.0  0.85284  0.42707  0.77547  1.0000
  N   N23       1.0  0.56437  0.42583  0.72754  1.0000
  N   N24       1.0  0.57339  0.14425  0.73554  1.0000
  N   N25       1.0  0.00568  0.51453  0.76645  1.0000
  N   N26       1.0  0.47987  0.49025  0.75963  1.0000
  N   N27       1.0  0.51221  0.98903  0.78074  1.0000
  N   N28       1.0  0.98903  0.48463  0.75375  1.0000
  N   N29       1.0  0.51050  0.50659  0.72932  1.0000
  N   N30       1.0  0.49735  0.00544  0.77826  1.0000
  C   C55       1.0  0.16179  0.60457  0.76155  1.0000
  C   C56       1.0  0.39368  0.56141  0.74407  1.0000
  C   C57       1.0  0.44038  0.83761  0.73399  1.0000
  C   C58       1.0  0.45260  0.88796  0.77383  1.0000
  C   C59       1.0  0.48665  0.90024  0.80824  1.0000
  C   C60       1.0  0.50558  0.93386  0.80760  1.0000
  C   C61       1.0  0.49110  0.95564  0.77676  1.0000
  C   C62       1.0  0.45708  0.94325  0.74477  1.0000
  C   C63       1.0  0.43823  0.90980  0.74569  1.0000
  C   C64       1.0  0.83258  0.40276  0.71708  1.0000
  C   C65       1.0  0.59515  0.43415  0.75529  1.0000
  C   C66       1.0  0.55215  0.44681  0.72864  1.0000
  C   C67       1.0  0.56962  0.48427  0.67073  1.0000
  C   C68       1.0  0.55517  0.50295  0.67463  1.0000
  C   C69       1.0  0.52291  0.48498  0.73386  1.0000
  C   C70       1.0  0.50514  0.44764  0.78803  1.0000
  C   C71       1.0  0.51959  0.42904  0.78477  1.0000
  C   C72       1.0  0.56144  0.16486  0.71597  1.0000
  C   C73       1.0  0.55337  0.11029  0.74049  1.0000
  C   C74       1.0  0.52029  0.09001  0.79011  1.0000
  C   C75       1.0  0.50273  0.05556  0.80133  1.0000
  C   C76       1.0  0.51773  0.03996  0.76780  1.0000
  C   C77       1.0  0.55085  0.05988  0.72042  1.0000
  C   C78       1.0  0.56825  0.09447  0.70678  1.0000
  H   H35       1.0  0.15411  0.62056  0.78435  1.0000
  H   H36       1.0  0.37492  0.53650  0.73386  1.0000
  H   H37       1.0  0.46513  0.84922  0.68715  1.0000
  H   H38       1.0  0.49795  0.88314  0.83786  1.0000
  H   H39       1.0  0.41189  0.89927  0.72392  1.0000
  H   H40       1.0  0.53185  0.94397  0.83335  1.0000
  H   H41       1.0  0.44627  0.96032  0.72183  1.0000
  H   H42       1.0  0.84063  0.39250  0.65264  1.0000
  H   H43       1.0  0.61255  0.45674  0.79028  1.0000
  H   H44       1.0  0.59399  0.49856  0.61649  1.0000
  H   H45       1.0  0.50644  0.40028  0.82526  1.0000
  H   H46       1.0  0.56819  0.53185  0.62920  1.0000
  H   H47       1.0  0.48007  0.43435  0.82976  1.0000
  H   H48       1.0  0.53523  0.15784  0.69068  1.0000
  H   H49       1.0  0.50889  0.10074  0.82824  1.0000
  H   H50       1.0  0.59366  0.11054  0.66713  1.0000
  H   H51       1.0  0.47737  0.03944  0.84198  1.0000
  H   H52       1.0  0.56199  0.04782  0.69144  1.0000
  C   C79       1.0  0.35224  0.69857  0.75842  1.0000
  C   C80       1.0  0.30034  0.65579  0.75716  1.0000
  C   C81       1.0  0.34335  0.64800  0.74782  1.0000
  C   C82       1.0  0.64283  0.30008  0.75323  1.0000
  C   C83       1.0  0.69394  0.34376  0.76032  1.0000
  C   C84       1.0  0.64947  0.35016  0.75966  1.0000
  N   N31       1.0  0.36502  0.67964  0.75174  1.0000
  N   N32       1.0  0.32005  0.68800  0.75956  1.0000
  N   N33       1.0  0.31073  0.63479  0.75128  1.0000
  N   N34       1.0  0.62873  0.31856  0.75254  1.0000
  N   N35       1.0  0.67529  0.31149  0.75777  1.0000
  N   N36       1.0  0.68222  0.36394  0.76360  1.0000
  C   C85       1.0  0.37497  0.73349  0.76156  1.0000
  C   C86       1.0  0.36347  0.75313  0.78597  1.0000
  C   C87       1.0  0.38471  0.78685  0.77869  1.0000
  C   C88       1.0  0.41796  0.80204  0.74438  1.0000
  C   C89       1.0  0.42944  0.78222  0.72194  1.0000
  C   C90       1.0  0.40826  0.74815  0.73222  1.0000
  C   C91       1.0  0.72958  0.35840  0.75460  1.0000
  C   C92       1.0  0.75028  0.39168  0.76116  1.0000
  C   C93       1.0  0.78378  0.40596  0.75263  1.0000
  C   C94       1.0  0.79751  0.38778  0.73190  1.0000
  C   C95       1.0  0.77677  0.35474  0.72322  1.0000
  C   C96       1.0  0.74328  0.33983  0.73840  1.0000
  H   H53       1.0  0.33769  0.74133  0.80966  1.0000
  H   H54       1.0  0.37636  0.80218  0.79997  1.0000
  H   H55       1.0  0.45507  0.79412  0.69342  1.0000
  H   H56       1.0  0.41678  0.73283  0.71242  1.0000
  H   H57       1.0  0.73936  0.40566  0.77445  1.0000
  H   H58       1.0  0.80000  0.43143  0.75976  1.0000
  H   H59       1.0  0.78724  0.34079  0.70501  1.0000
  H   H60       1.0  0.72722  0.31426  0.73260  1.0000
  C  Sn1       1.0  0.24576  0.65791  0.82212  1.0000
  C   C97       1.0  0.26227  0.64158  0.81144  1.0000
  C  Sn2       1.0  0.24560  0.61363  0.75631  1.0000
  C  Sn3       1.0  0.21173  0.60177  0.71079  1.0000
  C   C98       1.0  0.19523  0.61810  0.72145  1.0000
  C  Sn4       1.0  0.21188  0.64605  0.77660  1.0000
  O  Te1       1.0  0.26291  0.68581  0.87755  1.0000
  O  Te2       1.0  0.26264  0.59771  0.74675  1.0000
  O  Te3       1.0  0.19458  0.57385  0.65533  1.0000
  O  Te4       1.0  0.19486  0.66197  0.78614  1.0000
  Mg  Mg1       1.0  0.22853  0.56069  0.66371  1.0000
  Mg  Mg2       1.0  0.22895  0.69901  0.86906  1.0000
  C  Sn5       1.0  0.25128  0.65270  0.34271  1.0000
  C   C99       1.0  0.26799  0.63949  0.30487  1.0000
  C  Sn6       1.0  0.25132  0.61438  0.22957  1.0000
  C  Sn7       1.0  0.21725  0.60224  0.19116  1.0000
  C   C100      1.0  0.20056  0.61545  0.22895  1.0000
  C  Sn8       1.0  0.21721  0.64055  0.30430  1.0000
  O  Te5       1.0  0.26844  0.67779  0.41798  1.0000
  O  Te6       1.0  0.26854  0.60155  0.19299  1.0000
  O  Te7       1.0  0.20009  0.57712  0.11583  1.0000
  O  Te8       1.0  0.20000  0.65338  0.34084  1.0000
  Mg  Mg3       1.0  0.23435  0.56763  0.09024  1.0000
  Mg  Mg4       1.0  0.23417  0.68732  0.44348  1.0000
  C  Sn9       1.0  0.93343  0.48226  0.83630  1.0000
  C   C101      1.0  0.95252  0.46964  0.81531  1.0000
  C  Sn10      1.0  0.93835  0.44282  0.75261  1.0000
  C  Sn11      1.0  0.90438  0.42832  0.70989  1.0000
  C   C102      1.0  0.88530  0.44094  0.73086  1.0000
  C  Sn12      1.0  0.89945  0.46776  0.79358  1.0000
  O  Te9       1.0  0.94811  0.50909  0.89917  1.0000
  O  Te10      1.0  0.95794  0.43063  0.73279  1.0000
  O  Te11      1.0  0.88970  0.40147  0.64699  1.0000
  O  Te12      1.0  0.87988  0.47995  0.81338  1.0000
  Mg  Mg5       1.0  0.92663  0.39371  0.64242  1.0000
  Mg  Mg6       1.0  0.91118  0.51689  0.90364  1.0000
  C  Sn13      1.0  0.08598  0.52453  0.19818  1.0000
  C   C103      1.0  0.10837  0.55846  0.18862  1.0000
  C  Sn14      1.0  0.09897  0.57750  0.23094  1.0000
  C  Sn15      1.0  0.06651  0.56231  0.28405  1.0000
  C   C104      1.0  0.04414  0.52840  0.29362  1.0000
  C  Sn16      1.0  0.05352  0.50933  0.25129  1.0000
  O  Te13      1.0  0.09591  0.50597  0.15527  1.0000
  O  Te14      1.0  0.12179  0.61139  0.22033  1.0000
  O  Te15      1.0  0.05659  0.58090  0.32697  1.0000
  O  Te16      1.0  0.03073  0.47546  0.26191  1.0000
  Mg  Mg7       1.0  0.09657  0.62618  0.29225  1.0000
  Mg  Mg8       1.0  0.05593  0.46065  0.19012  1.0000
  C  Sn17      1.0  0.34373  0.58248  0.65971  1.0000
  C   C105      1.0  0.37619  0.58814  0.68532  1.0000
  C  Sn18      1.0  0.39956  0.61217  0.75924  1.0000
  C  Sn19      1.0  0.39029  0.63093  0.80873  1.0000
  C   C106      1.0  0.35785  0.62526  0.78315  1.0000
  C  Sn20      1.0  0.33447  0.60123  0.70920  1.0000
  O  Te17      1.0  0.32078  0.55832  0.58559  1.0000
  O  Te18      1.0  0.43186  0.61739  0.78349  1.0000
  O  Te19      1.0  0.41328  0.65510  0.88290  1.0000
  O  Te20      1.0  0.30219  0.59601  0.68498  1.0000
  Mg  Mg9       1.0  0.45422  0.65307  0.88965  1.0000
  Mg  Mg10      1.0  0.27981  0.56033  0.57893  1.0000
  C  Sn21      1.0  0.93433  0.43457  0.22644  1.0000
  C   C107      1.0  0.95610  0.46846  0.21938  1.0000
  C  Sn22      1.0  0.94558  0.48723  0.25666  1.0000
  C  Sn23      1.0  0.91261  0.47179  0.30206  1.0000
  C   C108      1.0  0.89087  0.43791  0.30914  1.0000
  C  Sn24      1.0  0.90137  0.41912  0.27184  1.0000
  O  Te21      1.0  0.94539  0.41629  0.18867  1.0000
  O  Te22      1.0  0.96779  0.52109  0.24867  1.0000
  O  Te23      1.0  0.90157  0.49010  0.33983  1.0000
  O  Te24      1.0  0.87918  0.38529  0.27984  1.0000
  Mg  Mg11      1.0  0.94106  0.53545  0.31141  1.0000
  Mg  Mg12      1.0  0.90589  0.37089  0.21723  1.0000
  C  Sn25      1.0  0.59842  0.37047  0.66399  1.0000
  C   C109      1.0  0.63078  0.37563  0.70319  1.0000
  C  Sn26      1.0  0.65270  0.39866  0.78624  1.0000
  C  Sn27      1.0  0.64204  0.41690  0.83117  1.0000
  C   C110      1.0  0.60969  0.41173  0.79200  1.0000
  C  Sn28      1.0  0.58775  0.38870  0.70892  1.0000
  O  Te25      1.0  0.57693  0.34732  0.58093  1.0000
  O  Te26      1.0  0.68494  0.40340  0.82403  1.0000
  O  Te27      1.0  0.66356  0.44006  0.91429  1.0000
  O  Te28      1.0  0.55553  0.38396  0.67116  1.0000
  Mg  Mg13      1.0  0.70502  0.43770  0.93849  1.0000
  Mg  Mg14      1.0  0.53542  0.34965  0.55681  1.0000
  C  Sn29      1.0  0.42853  0.50559  0.68267  1.0000
  C   C111      1.0  0.46175  0.51425  0.70813  1.0000
  C  Sn30      1.0  0.48314  0.53963  0.77766  1.0000
  C  Sn31      1.0  0.47106  0.55670  0.82280  1.0000
  C   C112      1.0  0.43786  0.54802  0.79736  1.0000
  C  Sn32      1.0  0.41646  0.52265  0.72780  1.0000
  O  Te29      1.0  0.40759  0.48013  0.61298  1.0000
  O  Te30      1.0  0.51626  0.54786  0.80186  1.0000
  O  Te31      1.0  0.49203  0.58217  0.89252  1.0000
  O  Te32      1.0  0.38336  0.51441  0.70364  1.0000
  Mg  Mg15      1.0  0.53510  0.58431  0.90107  1.0000
  Mg  Mg16      1.0  0.36449  0.47796  0.60454  1.0000
  C  Sn33      1.0  0.06306  0.50922  0.77966  1.0000
  C   C113      1.0  0.04303  0.52028  0.80538  1.0000
  C  Sn34      1.0  0.05534  0.55526  0.78410  1.0000
  C  Sn35      1.0  0.08836  0.57972  0.73599  1.0000
  C   C114      1.0  0.10838  0.56866  0.71025  1.0000
  C  Sn36      1.0  0.09608  0.53368  0.73154  1.0000
  O  Te33      1.0  0.05023  0.47412  0.80164  1.0000
  O  Te34      1.0  0.03484  0.56569  0.81061  1.0000
  O  Te35      1.0  0.10118  0.61484  0.71402  1.0000
  O  Te36      1.0  0.11656  0.52325  0.70503  1.0000
  Mg  Mg17      1.0  0.06362  0.61636  0.76480  1.0000
  Mg  Mg18      1.0  0.08780  0.47259  0.75070  1.0000
  C  Sn37      1.0  0.51906  0.43631  0.21925  1.0000
  C   C115      1.0  0.55080  0.44973  0.16853  1.0000
  C  Sn38      1.0  0.57459  0.48319  0.15954  1.0000
  C  Sn39      1.0  0.56652  0.50364  0.20226  1.0000
  C   C116      1.0  0.53480  0.49021  0.25298  1.0000
  C  Sn40      1.0  0.51098  0.45676  0.26197  1.0000
  O  Te37      1.0  0.49566  0.40280  0.22733  1.0000
  O  Te38      1.0  0.60615  0.49605  0.10842  1.0000
  O  Te39      1.0  0.58995  0.53717  0.19413  1.0000
  O  Te40      1.0  0.47945  0.44389  0.31308  1.0000
  Mg  Mg19      1.0  0.62953  0.54318  0.11746  1.0000
  Mg  Mg20      1.0  0.45605  0.39676  0.30419  1.0000
  C  Sn41      1.0  0.58070  0.24092  0.77764  1.0000
  C   C117      1.0  0.61467  0.25769  0.79460  1.0000
  C  Sn42      1.0  0.63348  0.24648  0.75860  1.0000
  C  Sn43      1.0  0.61801  0.21791  0.70440  1.0000
  C   C118      1.0  0.58406  0.20116  0.68743  1.0000
  C  Sn44      1.0  0.56523  0.21236  0.72343  1.0000
  O  Te41      1.0  0.56238  0.25257  0.81430  1.0000
  O  Te42      1.0  0.66741  0.26365  0.77657  1.0000
  O  Te43      1.0  0.63636  0.20627  0.66773  1.0000
  O  Te44      1.0  0.53132  0.19521  0.70546  1.0000
  Mg  Mg21      1.0  0.68181  0.23812  0.71133  1.0000
  Mg  Mg22      1.0  0.51690  0.22072  0.77056  1.0000
  C  Sn45      1.0  0.75585  0.33370  0.29535  1.0000
  C   C119      1.0  0.73879  0.34956  0.30535  1.0000
  C  Sn46      1.0  0.75401  0.38616  0.26097  1.0000
  C  Sn47      1.0  0.78696  0.40735  0.20530  1.0000
  C   C120      1.0  0.80400  0.39150  0.19529  1.0000
  C  Sn48      1.0  0.78880  0.35490  0.23968  1.0000
  O  Te45      1.0  0.74014  0.29707  0.34034  1.0000
  O  Te46      1.0  0.73646  0.40141  0.27208  1.0000
  O  Te47      1.0  0.80265  0.44401  0.16030  1.0000
  O  Te48      1.0  0.80633  0.33965  0.22856  1.0000
  Mg  Mg23      1.0  0.76850  0.45244  0.19668  1.0000
  Mg  Mg24      1.0  0.77430  0.28863  0.30383  1.0000
