data_image0
_chemical_formula_structural       C24H4N2C8H4C4H8S4N2H2C24H4N2C8H4C4H8S4N2H2SnCSn2CSnTe4Mg2SnCSn2CSnTe4Mg2SnCSn2CSnTe4Mg2SnCSn2CSnTe4Mg2SnCSn2CSnTe4Mg2SnCSn2CSnTe4Mg2SnCSn2CSnTe4Mg2SnCSn2CSnTe4Mg2
_chemical_formula_sum              "C88 H36 N8 S8 Sn32 Te32 Mg16"
_cell_length_a       24.6434
_cell_length_b       24.77
_cell_length_c       9.01937
_cell_angle_alpha    63.3832
_cell_angle_beta     93.0311
_cell_angle_gamma    81.1717

_symmetry_space_group_name_H-M    'P1'
_space_group_IT_number       1

loop_
  _space_group_symop_operation_xyz
  'x, y, z'

loop_
  _atom_site_type_symbol
  _atom_site_label
  _atom_site_symmetry_multiplicity
  _atom_site_fract_x
  _atom_site_fract_y
  _atom_site_fract_z
  _atom_site_occupancy
  C   C1        1.0  0.48486  0.48892  0.20740  1.0000
  C   C2        1.0  0.01603  0.00778  0.23338  1.0000
  C   C3        1.0  0.50667  0.53164  0.24942  1.0000
  C   C4        1.0  0.96813  0.97971  0.25371  1.0000
  C   C5        1.0  0.56303  0.57566  0.36316  1.0000
  C   C6        1.0  0.90835  0.91082  0.29463  1.0000
  C   C7        1.0  0.42733  0.44662  0.09132  1.0000
  C   C8        1.0  0.07058  0.08307  0.13990  1.0000
  C   C9        1.0  0.55590  0.52288  0.34793  1.0000
  C   C10       1.0  0.96371  0.91915  0.29877  1.0000
  C   C11       1.0  0.43710  0.49968  0.10038  1.0000
  C   C12       1.0  0.01703  0.06998  0.13972  1.0000
  C   C13       1.0  0.51966  0.62603  0.27677  1.0000
  C   C14       1.0  0.86934  0.96464  0.24736  1.0000
  C   C15       1.0  0.46732  0.39400  0.19051  1.0000
  C   C16       1.0  0.11195  0.03153  0.23437  1.0000
  C   C17       1.0  0.60522  0.95496  0.19777  1.0000
  C   C18       1.0  0.54339  0.89586  0.20096  1.0000
  C   C19       1.0  0.37282  0.06509  0.27685  1.0000
  C   C20       1.0  0.43465  0.12507  0.27007  1.0000
  C   C21       1.0  0.62937  0.91257  0.14030  1.0000
  C   C22       1.0  0.59195  0.87635  0.14349  1.0000
  C   C23       1.0  0.34470  0.11601  0.29675  1.0000
  C   C24       1.0  0.38219  0.15226  0.29345  1.0000
  H   H1        1.0  0.66927  0.91171  0.09609  1.0000
  H   H2        1.0  0.59627  0.84096  0.10339  1.0000
  H   H3        1.0  0.30168  0.12217  0.31611  1.0000
  H   H4        1.0  0.37531  0.19300  0.31140  1.0000
  N   N1        1.0  0.54630  0.06013  0.25211  1.0000
  N   N2        1.0  0.43423  0.95396  0.25223  1.0000
  C   C25       1.0  0.60276  0.04497  0.25707  1.0000
  C   C26       1.0  0.44460  0.89797  0.25108  1.0000
  C   C27       1.0  0.37957  0.96330  0.27558  1.0000
  C   C28       1.0  0.53743  0.11303  0.27008  1.0000
  C   C29       1.0  0.63048  0.08725  0.28949  1.0000
  C   C30       1.0  0.39570  0.87013  0.28051  1.0000
  C   C31       1.0  0.35490  0.91143  0.29201  1.0000
  C   C32       1.0  0.58984  0.13099  0.29011  1.0000
  H   H5        1.0  0.67478  0.08356  0.31169  1.0000
  H   H6        1.0  0.39289  0.82545  0.29119  1.0000
  H   H7        1.0  0.31242  0.90729  0.30928  1.0000
  H   H8        1.0  0.59544  0.17055  0.30620  1.0000
  C   C33       1.0  0.63071  0.99784  0.22411  1.0000
  C   C34       1.0  0.49544  0.87005  0.22597  1.0000
  C   C35       1.0  0.34973  0.01612  0.27955  1.0000
  C   C36       1.0  0.48469  0.14667  0.26548  1.0000
  H   H9        1.0  0.59874  0.57704  0.43642  1.0000
  H   H10       1.0  0.58537  0.47924  0.40754  1.0000
  H   H11       1.0  0.89676  0.86722  0.31989  1.0000
  H   H12       1.0  0.99952  0.88274  0.32827  1.0000
  H   H13       1.0  0.39206  0.44643  0.01423  1.0000
  H   H14       1.0  0.41081  0.54511  0.02986  1.0000
  H   H15       1.0  0.07937  0.12897  0.07328  1.0000
  H   H16       1.0  0.97968  0.10416  0.07085  1.0000
  S   S1        1.0  0.51751  0.41173  0.29599  1.0000
  S   S2        1.0  0.08298  0.96590  0.32399  1.0000
  S   S3        1.0  0.46934  0.60643  0.17710  1.0000
  S   S4        1.0  0.90264  0.02551  0.21215  1.0000
  N   N3        1.0  0.55267  0.94442  0.22807  1.0000
  N   N4        1.0  0.42714  0.07220  0.26265  1.0000
  H   H17       1.0  0.52422  0.96941  0.26330  1.0000
  H   H18       1.0  0.45743  0.04329  0.24513  1.0000
  C   C37       1.0  0.49662  0.47218  0.73139  1.0000
  C   C38       1.0  0.03371  0.01564  0.75505  1.0000
  C   C39       1.0  0.51849  0.51516  0.77171  1.0000
  C   C40       1.0  0.98476  0.99194  0.74102  1.0000
  C   C41       1.0  0.57574  0.55796  0.88680  1.0000
  C   C42       1.0  0.92370  0.94011  0.67409  1.0000
  C   C43       1.0  0.43959  0.42734  0.62282  1.0000
  C   C44       1.0  0.09303  0.08311  0.73623  1.0000
  C   C45       1.0  0.56747  0.50539  0.87251  1.0000
  C   C46       1.0  0.97858  0.94945  0.68336  1.0000
  C   C47       1.0  0.44780  0.48099  0.63127  1.0000
  C   C48       1.0  0.03763  0.07511  0.72410  1.0000
  C   C49       1.0  0.53343  0.60919  0.79761  1.0000
  C   C50       1.0  0.88710  0.97469  0.72589  1.0000
  C   C51       1.0  0.48175  0.37624  0.71603  1.0000
  C   C52       1.0  0.13201  0.02985  0.77923  1.0000
  C   C53       1.0  0.62791  0.93498  0.73388  1.0000
  C   C54       1.0  0.56554  0.87549  0.73682  1.0000
  C   C55       1.0  0.39419  0.04425  0.81472  1.0000
  C   C56       1.0  0.45536  0.10397  0.81199  1.0000
  C   C57       1.0  0.65717  0.87973  0.73692  1.0000
  C   C58       1.0  0.61935  0.84459  0.73434  1.0000
  C   C59       1.0  0.36732  0.09069  0.85431  1.0000
  C   C60       1.0  0.40449  0.12692  0.85307  1.0000
  H   H19       1.0  0.70154  0.86832  0.74101  1.0000
  H   H20       1.0  0.62763  0.80103  0.73090  1.0000
  H   H21       1.0  0.32540  0.09401  0.88391  1.0000
  H   H22       1.0  0.39825  0.16503  0.88241  1.0000
  N   N5        1.0  0.56589  0.04419  0.77005  1.0000
  N   N6        1.0  0.45389  0.93889  0.76100  1.0000
  C   C61       1.0  0.61951  0.03687  0.73648  1.0000
  C   C62       1.0  0.46311  0.88536  0.74659  1.0000
  C   C63       1.0  0.39836  0.95015  0.77420  1.0000
  C   C64       1.0  0.55455  0.10121  0.76542  1.0000
  C   C65       1.0  0.64190  0.09182  0.70295  1.0000
  C   C66       1.0  0.41179  0.86256  0.74880  1.0000
  C   C67       1.0  0.37143  0.90343  0.76337  1.0000
  C   C68       1.0  0.60174  0.13153  0.72225  1.0000
  H   H23       1.0  0.68192  0.09971  0.66353  1.0000
  H   H24       1.0  0.40717  0.82077  0.74342  1.0000
  H   H25       1.0  0.32811  0.90135  0.77141  1.0000
  H   H26       1.0  0.60312  0.17766  0.70312  1.0000
  C   C69       1.0  0.65056  0.98436  0.73230  1.0000
  C   C70       1.0  0.51561  0.85352  0.74301  1.0000
  C   C71       1.0  0.37003  0.99878  0.79941  1.0000
  C   C72       1.0  0.50354  0.12933  0.78932  1.0000
  H   H27       1.0  0.61161  0.55898  0.96004  1.0000
  H   H28       1.0  0.59592  0.46110  0.93420  1.0000
  H   H29       1.0  0.91085  0.90920  0.62984  1.0000
  H   H30       1.0  0.01257  0.92797  0.64338  1.0000
  H   H31       1.0  0.40400  0.42580  0.54965  1.0000
  H   H32       1.0  0.41953  0.52528  0.56550  1.0000
  H   H33       1.0  0.10474  0.12637  0.71509  1.0000
  H   H34       1.0  0.00122  0.11161  0.68842  1.0000
  S   S5        1.0  0.53214  0.39629  0.81408  1.0000
  S   S6        1.0  0.09950  0.96917  0.80524  1.0000
  S   S7        1.0  0.48302  0.59084  0.69483  1.0000
  S   S8        1.0  0.92191  0.01881  0.78866  1.0000
  N   N7        1.0  0.57261  0.93036  0.73339  1.0000
  N   N8        1.0  0.44767  0.05318  0.79377  1.0000
  H   H35       1.0  0.54164  0.96104  0.74157  1.0000
  H   H36       1.0  0.47780  0.02567  0.77097  1.0000
  C  Sn1       1.0  0.72848  0.04148  0.09136  1.0000
  C   C73       1.0  0.69644  0.99683  0.16506  1.0000
  C  Sn2       1.0  0.56674  0.93830  0.29224  1.0000
  C  Sn3       1.0  0.62452  0.92410  0.34698  1.0000
  C   C74       1.0  0.81079  0.96873  0.27331  1.0000
  C  Sn4       1.0  0.78627  0.02728  0.14610  1.0000
  O  Te1       1.0  0.74864  0.92960  0.96442  1.0000
  O  Te2       1.0  0.53385  0.89442  0.36398  1.0000
  O  Te3       1.0  0.64994  0.86582  0.47402  1.0000
  O  Te4       1.0  0.81911  0.07114  0.07439  1.0000
  Mg  Mg1       1.0  0.58764  0.82164  0.53289  1.0000
  Mg  Mg2       1.0  0.81096  0.97384  0.90555  1.0000
  C  Sn5       1.0  0.45133  0.77784  0.17674  1.0000
  C   C75       1.0  0.48569  0.79980  0.25619  1.0000
  C  Sn6       1.0  0.53906  0.76640  0.33332  1.0000
  C  Sn7       1.0  0.55849  0.70990  0.33090  1.0000
  C   C76       1.0  0.52414  0.68797  0.25147  1.0000
  C  Sn8       1.0  0.47076  0.72133  0.17433  1.0000
  O  Te5       1.0  0.39813  0.81199  0.10044  1.0000
  O  Te6       1.0  0.57265  0.78928  0.41200  1.0000
  O  Te7       1.0  0.61174  0.67575  0.40730  1.0000
  O  Te8       1.0  0.43719  0.69849  0.09566  1.0000
  Mg  Mg3       1.0  0.64192  0.72605  0.49838  1.0000
  Mg  Mg4       1.0  0.36792  0.76169  0.00917  1.0000
  C  Sn9       1.0  0.40874  0.96458  0.38837  1.0000
  C   C77       1.0  0.43835  0.00522  0.27688  1.0000
  C  Sn10      1.0  0.41108  0.06371  0.15547  1.0000
  C  Sn11      1.0  0.35300  0.08197  0.14535  1.0000
  C   C78       1.0  0.32343  0.04135  0.25681  1.0000
  C  Sn12      1.0  0.35066  0.98285  0.37824  1.0000
  O  Te9       1.0  0.28259  0.90634  0.50874  1.0000
  O  Te10      1.0  0.44156  0.10353  0.04536  1.0000
  O  Te11      1.0  0.32490  0.14027  0.02484  1.0000
  O  Te12      1.0  0.32021  0.94304  0.48832  1.0000
  Mg  Mg5       1.0  0.43016  0.00800  0.90311  1.0000
  Mg  Mg6       1.0  0.22290  0.86848  0.63067  1.0000
  C  Sn13      1.0  0.42338  0.30498  0.13004  1.0000
  C   C79       1.0  0.45360  0.32531  0.22377  1.0000
  C  Sn14      1.0  0.50231  0.28785  0.32904  1.0000
  C  Sn15      1.0  0.52122  0.22884  0.34080  1.0000
  C   C80       1.0  0.49102  0.20853  0.24709  1.0000
  C  Sn16      1.0  0.44230  0.24597  0.14180  1.0000
  O  Te13      1.0  0.37481  0.34320  0.02560  1.0000
  O  Te14      1.0  0.53180  0.30917  0.42155  1.0000
  O  Te15      1.0  0.56984  0.19061  0.44535  1.0000
  O  Te16      1.0  0.41282  0.22467  0.04931  1.0000
  Mg  Mg7       1.0  0.59556  0.24020  0.54623  1.0000
  Mg  Mg8       1.0  0.39467  0.12352  0.92453  1.0000
  C  Sn17      1.0  0.94436  0.98077  0.87592  1.0000
  C   C81       1.0  0.97852  0.96691  0.77372  1.0000
  C  Sn18      1.0  0.95545  0.96464  0.63228  1.0000
  C  Sn19      1.0  0.89700  0.97650  0.59208  1.0000
  C   C82       1.0  0.86287  0.99036  0.69422  1.0000
  C  Sn20      1.0  0.88592  0.99263  0.83571  1.0000
  O  Te17      1.0  0.92274  0.15288  0.01669  1.0000
  O  Te18      1.0  0.99045  0.95067  0.53205  1.0000
  O  Te19      1.0  0.87304  0.97447  0.45117  1.0000
  O  Te20      1.0  0.85095  0.00660  0.93589  1.0000
  Mg  Mg9       1.0  0.93804  0.95344  0.35349  1.0000
  Mg  Mg10      1.0  0.85771  0.17397  0.11442  1.0000
  C  Sn21      1.0  0.55197  0.68900  0.93311  1.0000
  C   C83       1.0  0.52340  0.67078  0.83079  1.0000
  C  Sn22      1.0  0.49485  0.71462  0.67444  1.0000
  C  Sn23      1.0  0.49489  0.77799  0.61912  1.0000
  C   C84       1.0  0.52347  0.79618  0.72139  1.0000
  C  Sn24      1.0  0.55202  0.75237  0.87779  1.0000
  O  Te21      1.0  0.53464  0.81448  0.08894  1.0000
  O  Te22      1.0  0.46656  0.69530  0.57439  1.0000
  O  Te23      1.0  0.46660  0.82261  0.46315  1.0000
  O  Te24      1.0  0.58030  0.77167  0.97779  1.0000
  Mg  Mg11      1.0  0.43421  0.77346  0.37213  1.0000
  Mg  Mg12      1.0  0.56710  0.86364  0.18002  1.0000
  C  Sn25      1.0  0.26193  0.07422  0.70333  1.0000
  C   C85       1.0  0.30225  0.02340  0.81390  1.0000
  C  Sn26      1.0  0.28760  0.96680  0.91086  1.0000
  C  Sn27      1.0  0.23147  0.96084  0.89697  1.0000
  C   C86       1.0  0.19118  0.01164  0.78644  1.0000
  C  Sn28      1.0  0.20579  0.06827  0.68944  1.0000
  O  Te25      1.0  0.27752  0.13036  0.60761  1.0000
  O  Te26      1.0  0.28305  0.08675  0.02056  1.0000
  O  Te27      1.0  0.21590  0.90464  0.99282  1.0000
  O  Te28      1.0  0.16478  0.11839  0.57978  1.0000
  Mg  Mg13      1.0  0.24125  0.01985  0.12431  1.0000
  Mg  Mg14      1.0  0.20655  0.18530  0.47591  1.0000
  C  Sn29      1.0  0.52879  0.21383  0.90771  1.0000
  C   C87       1.0  0.49586  0.19188  0.82455  1.0000
  C  Sn30      1.0  0.45962  0.23295  0.67935  1.0000
  C  Sn31      1.0  0.45624  0.29729  0.61587  1.0000
  C   C88       1.0  0.48916  0.31921  0.69899  1.0000
  C  Sn32      1.0  0.52542  0.27817  0.84423  1.0000
  O  Te29      1.0  0.51915  0.34203  0.05265  1.0000
  O  Te30      1.0  0.42710  0.20991  0.59843  1.0000
  O  Te31      1.0  0.42026  0.33919  0.47081  1.0000
  O  Te32      1.0  0.55793  0.30118  0.92511  1.0000
  Mg  Mg15      1.0  0.38447  0.28537  0.40516  1.0000
  Mg  Mg16      1.0  0.55499  0.39586  0.11832  1.0000
