data_image0
_chemical_formula_structural       N6C7H2NCHCOHC7H2NCHCOHC7H2NCHCOHC7H2NCHCOHC7H2NCHCOHC7H2NCHCOH19C12O6H12N6C7H2NCHCOHC7H2NCHCOHC7H2NCHCOHC7H2NCHCOHC7H2NCHCOHCH2NC2OH16C12O6H12SnCSn2CSnTe4Mg2
_chemical_formula_sum              "N24 C128 H104 O24 Sn4 Te4 Mg2"
_cell_length_a       29.7066
_cell_length_b       29.8937
_cell_length_c       9.81314
_cell_angle_alpha    123.92
_cell_angle_beta     96.6717
_cell_angle_gamma    118.613

_symmetry_space_group_name_H-M    'P1'
_space_group_IT_number       1

loop_
  _space_group_symop_operation_xyz
  'x, y, z'

loop_
  _atom_site_type_symbol
  _atom_site_label
  _atom_site_symmetry_multiplicity
  _atom_site_fract_x
  _atom_site_fract_y
  _atom_site_fract_z
  _atom_site_occupancy
  N   N1        1.0  0.41672  0.61297  0.32225  1.0000
  N   N2        1.0  0.39729  0.79893  0.21472  1.0000
  N   N3        1.0  0.18384  0.58530  0.21147  1.0000
  N   N4        1.0  0.58422  0.38392  0.22831  1.0000
  N   N5        1.0  0.62287  0.20681  0.33121  1.0000
  N   N6        1.0  0.82125  0.42669  0.31365  1.0000
  C   C1        1.0  0.36270  0.59431  0.28296  1.0000
  C   C2        1.0  0.43683  0.57811  0.31252  1.0000
  C   C3        1.0  0.40951  0.52403  0.31160  1.0000
  C   C4        1.0  0.43411  0.49256  0.29426  1.0000
  C   C5        1.0  0.48487  0.51189  0.27638  1.0000
  C   C6        1.0  0.51240  0.56767  0.28428  1.0000
  C   C7        1.0  0.48909  0.59997  0.30318  1.0000
  H   H1        1.0  0.31452  0.35516  0.08701  1.0000
  H   H2        1.0  0.24377  0.33116  0.99335  1.0000
  N   N7        1.0  0.36121  0.50576  0.34327  1.0000
  C   C8        1.0  0.31193  0.43894  0.26247  1.0000
  H   H3        1.0  0.36825  0.54677  0.46515  1.0000
  C   C9        1.0  0.29251  0.37381  0.06807  1.0000
  O   O1        1.0  0.28467  0.43475  0.34646  1.0000
  H   H4        1.0  0.30297  0.38432  0.98038  1.0000
  C   C10       1.0  0.40962  0.76482  0.23623  1.0000
  C   C11       1.0  0.43100  0.85208  0.21625  1.0000
  C   C12       1.0  0.48796  0.88099  0.23172  1.0000
  C   C13       1.0  0.51725  0.93838  0.24784  1.0000
  C   C14       1.0  0.49301  0.96879  0.24865  1.0000
  C   C15       1.0  0.43504  0.93659  0.22065  1.0000
  C   C16       1.0  0.40484  0.87968  0.20434  1.0000
  H   H5        1.0  0.65286  0.99433  0.56511  1.0000
  H   H6        1.0  0.58668  0.97855  0.56662  1.0000
  N   N8        1.0  0.51310  0.84928  0.21630  1.0000
  C   C17       1.0  0.57245  0.88370  0.33076  1.0000
  H   H7        1.0  0.49189  0.80112  0.07781  1.0000
  C   C18       1.0  0.60893  0.95654  0.53576  1.0000
  O   O2        1.0  0.59188  0.85277  0.26949  1.0000
  H   H8        1.0  0.61731  0.94929  0.63131  1.0000
  C   C19       1.0  0.22417  0.63694  0.22451  1.0000
  C   C20       1.0  0.12911  0.56106  0.20419  1.0000
  C   C21       1.0  0.09536  0.57999  0.17894  1.0000
  C   C22       1.0  0.04217  0.55112  0.18060  1.0000
  C   C23       1.0  0.02151  0.50600  0.21018  1.0000
  C   C24       1.0  0.05314  0.48413  0.22242  1.0000
  C   C25       1.0  0.10577  0.51129  0.21951  1.0000
  H   H9        1.0  0.02341  0.63950  0.15853  1.0000
  H   H10       1.0  0.07970  0.68361  0.38455  1.0000
  N   N9        1.0  0.11505  0.62420  0.14565  1.0000
  C   C26       1.0  0.10671  0.67038  0.17691  1.0000
  H   H11       1.0  0.13608  0.61823  0.06985  1.0000
  C   C27       1.0  0.07172  0.68240  0.27015  1.0000
  O   O3        1.0  0.12890  0.70064  0.12533  1.0000
  H   H12       1.0  0.08491  0.73319  0.32787  1.0000
  C   C28       1.0  0.63932  0.40599  0.26565  1.0000
  C   C29       1.0  0.56080  0.41485  0.22842  1.0000
  C   C30       1.0  0.58389  0.46427  0.21149  1.0000
  C   C31       1.0  0.55731  0.49336  0.22417  1.0000
  C   C32       1.0  0.50974  0.47754  0.25820  1.0000
  C   C33       1.0  0.48638  0.42659  0.26870  1.0000
  C   C34       1.0  0.51093  0.39549  0.25127  1.0000
  H   H13       1.0  0.67485  0.63176  0.37412  1.0000
  H   H14       1.0  0.67847  0.60676  0.50137  1.0000
  N   N10       1.0  0.62982  0.48058  0.16931  1.0000
  C   C35       1.0  0.67532  0.54518  0.23027  1.0000
  H   H15       1.0  0.62448  0.43753  0.06070  1.0000
  C   C36       1.0  0.69287  0.61284  0.41085  1.0000
  O   O4        1.0  0.70198  0.54648  0.14347  1.0000
  H   H16       1.0  0.74216  0.65362  0.49136  1.0000
  C   C37       1.0  0.60858  0.24143  0.31991  1.0000
  C   C38       1.0  0.58866  0.14941  0.31416  1.0000
  C   C39       1.0  0.52469  0.09911  0.21021  1.0000
  C   C40       1.0  0.49515  0.04116  0.19108  1.0000
  C   C41       1.0  0.52618  0.03097  0.27349  1.0000
  C   C42       1.0  0.58951  0.08137  0.37676  1.0000
  C   C43       1.0  0.61970  0.13870  0.39489  1.0000
  H   H17       1.0  0.37539  0.02791  0.10355  1.0000
  H   H18       1.0  0.44561  0.09723  0.32603  1.0000
  N   N11       1.0  0.49148  0.10454  0.11396  1.0000
  C   C44       1.0  0.44475  0.10405  0.11646  1.0000
  H   H19       1.0  0.50815  0.11926  0.04799  1.0000
  C   C45       1.0  0.41569  0.08548  0.21221  1.0000
  O   O5        1.0  0.42789  0.11881  0.03752  1.0000
  H   H20       1.0  0.40096  0.11570  0.27375  1.0000
  C   C46       1.0  0.78885  0.38080  0.32730  1.0000
  C   C47       1.0  0.86941  0.44261  0.28460  1.0000
  C   C48       1.0  0.87994  0.39483  0.19120  1.0000
  C   C49       1.0  0.93056  0.41767  0.17393  1.0000
  C   C50       1.0  0.96932  0.48438  0.23466  1.0000
  C   C51       1.0  0.95552  0.52874  0.31412  1.0000
  C   C52       1.0  0.90700  0.50843  0.34015  1.0000
  H   H21       1.0  0.91961  0.29778  0.08732  1.0000
  H   H22       1.0  0.93522  0.36202  0.32123  1.0000
  N   N12       1.0  0.83573  0.32389  0.10154  1.0000
  C   C53       1.0  0.84054  0.27832  0.09107  1.0000
  H   H23       1.0  0.79228  0.30211  0.03422  1.0000
  C   C54       1.0  0.90287  0.30516  0.18564  1.0000
  O   O6        1.0  0.79421  0.21828  0.00752  1.0000
  H   H24       1.0  0.89928  0.27265  0.21110  1.0000
  H   H25       1.0  0.51102  0.64274  0.30842  1.0000
  H   H26       1.0  0.41388  0.45353  0.30280  1.0000
  H   H27       1.0  0.55291  0.58687  0.27764  1.0000
  H   H28       1.0  0.36032  0.85613  0.18623  1.0000
  H   H29       1.0  0.55968  0.95754  0.25325  1.0000
  H   H30       1.0  0.41395  0.95764  0.21742  1.0000
  H   H31       1.0  0.13147  0.49623  0.23545  1.0000
  H   H32       1.0  0.01526  0.56316  0.15419  1.0000
  H   H33       1.0  0.03846  0.44901  0.24482  1.0000
  H   H34       1.0  0.49302  0.35700  0.26270  1.0000
  H   H35       1.0  0.57358  0.52737  0.19817  1.0000
  H   H36       1.0  0.44919  0.41116  0.29291  1.0000
  H   H37       1.0  0.66851  0.17803  0.47888  1.0000
  H   H38       1.0  0.44635  0.00113  0.09992  1.0000
  H   H39       1.0  0.61512  0.07633  0.44674  1.0000
  H   H40       1.0  0.89745  0.54381  0.40593  1.0000
  H   H41       1.0  0.93696  0.37983  0.09661  1.0000
  H   H42       1.0  0.98387  0.58017  0.35970  1.0000
  C   C55       1.0  0.62172  0.32200  0.29263  1.0000
  C   C56       1.0  0.65822  0.37508  0.28999  1.0000
  C   C57       1.0  0.70228  0.31316  0.33604  1.0000
  C   C58       1.0  0.64501  0.29251  0.31908  1.0000
  C   C59       1.0  0.71668  0.39915  0.31297  1.0000
  C   C60       1.0  0.73712  0.36614  0.33009  1.0000
  C   C61       1.0  0.38941  0.68444  0.27381  1.0000
  C   C62       1.0  0.34871  0.63032  0.26738  1.0000
  C   C63       1.0  0.31524  0.70190  0.22936  1.0000
  C   C64       1.0  0.37092  0.71702  0.24469  1.0000
  C   C65       1.0  0.29103  0.61067  0.24217  1.0000
  C   C66       1.0  0.27632  0.64902  0.23136  1.0000
  O   O7        1.0  0.57021  0.30120  0.27129  1.0000
  O   O8        1.0  0.72079  0.28505  0.35229  1.0000
  O   O9        1.0  0.74754  0.44601  0.31042  1.0000
  O   O10       1.0  0.44149  0.70440  0.30676  1.0000
  O   O11       1.0  0.30075  0.73345  0.21412  1.0000
  O   O12       1.0  0.25560  0.56303  0.23756  1.0000
  H   H43       1.0  0.56056  0.34283  0.22448  1.0000
  H   H44       1.0  0.67080  0.45007  0.28248  1.0000
  H   H45       1.0  0.80217  0.35372  0.33369  1.0000
  H   H46       1.0  0.80190  0.44888  0.31380  1.0000
  H   H47       1.0  0.66540  0.22679  0.34829  1.0000
  H   H48       1.0  0.56688  0.22951  0.31044  1.0000
  H   H49       1.0  0.45108  0.77558  0.24851  1.0000
  H   H50       1.0  0.35627  0.78439  0.20839  1.0000
  H   H51       1.0  0.21811  0.67136  0.23284  1.0000
  H   H52       1.0  0.20129  0.56183  0.21667  1.0000
  H   H53       1.0  0.32819  0.54979  0.25969  1.0000
  H   H54       1.0  0.44412  0.65625  0.33750  1.0000
  N   N13       1.0  0.42187  0.62254  0.81570  1.0000
  N   N14       1.0  0.39478  0.80497  0.71689  1.0000
  N   N15       1.0  0.18422  0.58511  0.70580  1.0000
  N   N16       1.0  0.59079  0.39539  0.73175  1.0000
  N   N17       1.0  0.61577  0.21127  0.83183  1.0000
  N   N18       1.0  0.82156  0.42170  0.81023  1.0000
  C   C67       1.0  0.36645  0.60020  0.77076  1.0000
  C   C68       1.0  0.44457  0.59069  0.81280  1.0000
  C   C69       1.0  0.42020  0.54036  0.82580  1.0000
  C   C70       1.0  0.44553  0.50998  0.81178  1.0000
  C   C71       1.0  0.49453  0.52711  0.78481  1.0000
  C   C72       1.0  0.51979  0.58002  0.78151  1.0000
  C   C73       1.0  0.49563  0.61126  0.79670  1.0000
  H   H55       1.0  0.32427  0.40077  0.52520  1.0000
  H   H56       1.0  0.32112  0.36925  0.63717  1.0000
  N   N19       1.0  0.37391  0.52460  0.86668  1.0000
  C   C74       1.0  0.32506  0.45913  0.79385  1.0000
  H   H57       1.0  0.38064  0.56739  0.98130  1.0000
  C   C75       1.0  0.30657  0.39202  0.60751  1.0000
  O   O13       1.0  0.29705  0.45703  0.87660  1.0000
  H   H58       1.0  0.25713  0.35305  0.52087  1.0000
  C   C76       1.0  0.40945  0.77344  0.74287  1.0000
  C   C77       1.0  0.42612  0.85588  0.71007  1.0000
  C   C78       1.0  0.48133  0.88258  0.71421  1.0000
  C   C79       1.0  0.50924  0.93912  0.72697  1.0000
  C   C80       1.0  0.48455  0.96963  0.73048  1.0000
  C   C81       1.0  0.42730  0.93815  0.70893  1.0000
  C   C82       1.0  0.39916  0.88279  0.69929  1.0000
  H   H59       1.0  0.64521  0.99660  0.02769  1.0000
  H   H60       1.0  0.58156  0.97949  0.05094  1.0000
  N   N20       1.0  0.50707  0.85104  0.69547  1.0000
  C   C83       1.0  0.56632  0.88458  0.80774  1.0000
  H   H61       1.0  0.48456  0.80047  0.56300  1.0000
  C   C84       1.0  0.60458  0.95881  0.01084  1.0000
  O   O14       1.0  0.58499  0.85270  0.74567  1.0000
  H   H62       1.0  0.61974  0.95526  0.10929  1.0000
  C   C85       1.0  0.22352  0.63743  0.71975  1.0000
  C   C86       1.0  0.12992  0.56058  0.70125  1.0000
  C   C87       1.0  0.09539  0.57885  0.67816  1.0000
  C   C88       1.0  0.04123  0.54697  0.67235  1.0000
  C   C89       1.0  0.02010  0.50011  0.69611  1.0000
  C   C90       1.0  0.05398  0.48101  0.71302  1.0000
  C   C91       1.0  0.10725  0.51043  0.71479  1.0000
  H   H63       1.0  0.02470  0.64153  0.69774  1.0000
  H   H64       1.0  0.08927  0.69251  0.91775  1.0000
  N   N21       1.0  0.11434  0.62453  0.65026  1.0000
  C   C92       1.0  0.10367  0.66906  0.68176  1.0000
  H   H65       1.0  0.13282  0.61758  0.56659  1.0000
  C   C93       1.0  0.07387  0.68530  0.79414  1.0000
  O   O15       1.0  0.12076  0.69508  0.61609  1.0000
  H   H66       1.0  0.08383  0.73373  0.84173  1.0000
  C   C94       1.0  0.64505  0.41476  0.76769  1.0000
  C   C95       1.0  0.56921  0.42852  0.73692  1.0000
  C   C96       1.0  0.59372  0.47939  0.72552  1.0000
  C   C97       1.0  0.56804  0.50956  0.73974  1.0000
  C   C98       1.0  0.51956  0.49307  0.76895  1.0000
  C   C99       1.0  0.49503  0.44103  0.77550  1.0000
  C   C100      1.0  0.51889  0.40921  0.75749  1.0000
  H   H67       1.0  0.69432  0.61985  0.03202  1.0000
  H   H68       1.0  0.75406  0.67022  0.01581  1.0000
  N   N22       1.0  0.64059  0.49651  0.68753  1.0000
  C   C101      1.0  0.68542  0.56178  0.75073  1.0000
  H   H69       1.0  0.63397  0.45466  0.56888  1.0000
  C   C102      1.0  0.70520  0.62852  0.94158  1.0000
  O   O16       1.0  0.70933  0.56311  0.65670  1.0000
  H   H70       1.0  0.68462  0.64813  0.92061  1.0000
  C   C103      1.0  0.60579  0.25044  0.83191  1.0000
  C   C104      1.0  0.58017  0.15240  0.80766  1.0000
  C   C105      1.0  0.51606  0.10454  0.71038  1.0000
  C   C106      1.0  0.48609  0.04530  0.68645  1.0000
  C   C107      1.0  0.51725  0.03197  0.75562  1.0000
  C   C108      1.0  0.58054  0.07970  0.84960  1.0000
  C   C109      1.0  0.61100  0.13813  0.87287  1.0000
  H   H71       1.0  0.37118  0.00886  0.52766  1.0000
  H   H72       1.0  0.41287  0.08506  0.78481  1.0000
  N   N23       1.0  0.48460  0.11492  0.62873  1.0000
  C   C110      1.0  0.43530  0.11104  0.62438  1.0000
  H   H73       1.0  0.50911  0.14741  0.61159  1.0000
  C   C111      1.0  0.39097  0.06482  0.64159  1.0000
  O   O17       1.0  0.43018  0.14554  0.60196  1.0000
  H   H74       1.0  0.35530  0.06742  0.62699  1.0000
  C   C112      1.0  0.78689  0.37688  0.82424  1.0000
  H   H75       1.0  0.81947  0.25810  0.38553  1.0000
  H   H76       1.0  0.88742  0.27283  0.43595  1.0000
  N   N24       1.0  0.87277  0.35265  0.76323  1.0000
  C   C113      1.0  0.86541  0.29133  0.65336  1.0000
  C   C114      1.0  0.84710  0.25201  0.44555  1.0000
  O   O18       1.0  0.87113  0.26977  0.72515  1.0000
  H   H77       1.0  0.82268  0.19551  0.36336  1.0000
  H   H78       1.0  0.51583  0.65170  0.79287  1.0000
  H   H79       1.0  0.42713  0.47383  0.83046  1.0000
  H   H80       1.0  0.55906  0.59759  0.76795  1.0000
  H   H81       1.0  0.35564  0.86025  0.68828  1.0000
  H   H82       1.0  0.55102  0.95798  0.72793  1.0000
  H   H83       1.0  0.40563  0.95889  0.70742  1.0000
  H   H84       1.0  0.13370  0.49630  0.73147  1.0000
  H   H85       1.0  0.01443  0.55905  0.64584  1.0000
  H   H86       1.0  0.04040  0.44505  0.73199  1.0000
  H   H87       1.0  0.49973  0.36969  0.76518  1.0000
  H   H88       1.0  0.58575  0.54506  0.71878  1.0000
  H   H89       1.0  0.45703  0.42501  0.79572  1.0000
  H   H90       1.0  0.65991  0.17529  0.94789  1.0000
  H   H91       1.0  0.43712  0.00712  0.60342  1.0000
  H   H92       1.0  0.60609  0.07223  0.90964  1.0000
  C   C115      1.0  0.62551  0.33432  0.81108  1.0000
  C   C116      1.0  0.66179  0.38247  0.79389  1.0000
  C   C117      1.0  0.70043  0.31674  0.84384  1.0000
  C   C118      1.0  0.64471  0.30064  0.83087  1.0000
  C   C119      1.0  0.71872  0.40156  0.81029  1.0000
  C   C120      1.0  0.73651  0.36672  0.83038  1.0000
  C   C121      1.0  0.39131  0.69279  0.77470  1.0000
  C   C122      1.0  0.35061  0.63525  0.75745  1.0000
  C   C123      1.0  0.31396  0.70535  0.72665  1.0000
  C   C124      1.0  0.37111  0.72422  0.74753  1.0000
  C   C125      1.0  0.29144  0.61176  0.72629  1.0000
  C   C126      1.0  0.27564  0.65044  0.72300  1.0000
  O   O19       1.0  0.57746  0.32147  0.80958  1.0000
  O   O20       1.0  0.71654  0.28735  0.86482  1.0000
  O   O21       1.0  0.75080  0.44591  0.80131  1.0000
  O   O22       1.0  0.44459  0.71597  0.81312  1.0000
  O   O23       1.0  0.29753  0.73562  0.71216  1.0000
  O   O24       1.0  0.25617  0.56096  0.71129  1.0000
  H   H93       1.0  0.56672  0.35705  0.73615  1.0000
  H   H94       1.0  0.67689  0.45649  0.77746  1.0000
  H   H95       1.0  0.79667  0.34684  0.82747  1.0000
  H   H96       1.0  0.80365  0.44489  0.80728  1.0000
  H   H97       1.0  0.65803  0.22963  0.84694  1.0000
  H   H98       1.0  0.56673  0.24455  0.83301  1.0000
  H   H99       1.0  0.45186  0.78646  0.76005  1.0000
  H   H100      1.0  0.35343  0.78853  0.70960  1.0000
  H   H101      1.0  0.21663  0.67186  0.73216  1.0000
  H   H102      1.0  0.20108  0.56029  0.70219  1.0000
  H   H103      1.0  0.33261  0.55286  0.73852  1.0000
  H   H104      1.0  0.44811  0.66704  0.83432  1.0000
  C  Sn1       1.0  0.91528  0.41515  0.77965  1.0000
  C   C127      1.0  0.89452  0.45205  0.83537  1.0000
  C  Sn2       1.0  0.89387  0.48161  0.76503  1.0000
  C  Sn3       1.0  0.91437  0.47409  0.63623  1.0000
  C   C128      1.0  0.93510  0.43720  0.58055  1.0000
  C  Sn4       1.0  0.93577  0.40763  0.65085  1.0000
  O  Te1       1.0  0.91552  0.38603  0.85175  1.0000
  O  Te2       1.0  0.87293  0.51830  0.82286  1.0000
  O  Te3       1.0  0.91411  0.50325  0.56414  1.0000
  O  Te4       1.0  0.95668  0.37096  0.59307  1.0000
  Mg  Mg1       1.0  0.88137  0.54844  0.68521  1.0000
  Mg  Mg2       1.0  0.94824  0.34076  0.73054  1.0000
