data_image0
_chemical_formula_structural       C5H2OC5H2OC2HC2HC3NC5H2OC5H2OC2HC2HC3NC5H2OC5H2OC2HC2HC3NC5H2OC5H2OC2HC2HC3NC5H2OC5H2OC2HC2HC3NC5H2OC5H2OC2HC2HC3NC5H2OC5H2OC2HC2HC3NC5H2OC5H2OC2HC2HC3N6HNHNHNHC5H2OC5H2OC2HC2HC3NC5H2OC5H2OC2HC2HC3NC5H2OC5H2OC2HC2HC3NC5H2OC5H2OC2HC2HC3NC5H2OC5H2OC2HC2HC3NC5H2OC5H2OC2HC2HC3NC5H2OC5H2OC2HC2HC3NC5H2OC5H2OC2HC2HC3N6HNHNHNHSnCSn2CSnTe4Mg2SnCSn2CSnTe4Mg2SnCSn2CSnTe4Mg2SnCSn2CSnTe4Mg2SnCSn2CSnTe4Mg2SnCSn2CSnTe4Mg2SnCSn2CSnTe4Mg2SnCSn2CSnTe4Mg2SnCSn2CSnTe4Mg2SnCSn2CSnTe4Mg2SnCSn2CSnTe4Mg2SnCSn2CSnTe4Mg2SnCSn2CSnTe4Mg2SnCSn2CSnTe4Mg2SnCSn2CSnTe4Mg2SnCSn2CSnTe4Mg2
_chemical_formula_sum              "C304 H104 O32 N32 Sn64 Te64 Mg32"
_cell_length_a       41.9591
_cell_length_b       42.2436
_cell_length_c       8.061
_cell_angle_alpha    79.5115
_cell_angle_beta     83.6196
_cell_angle_gamma    90.1198

_symmetry_space_group_name_H-M    'P1'
_space_group_IT_number       1

loop_
  _space_group_symop_operation_xyz
  'x, y, z'

loop_
  _atom_site_type_symbol
  _atom_site_label
  _atom_site_symmetry_multiplicity
  _atom_site_fract_x
  _atom_site_fract_y
  _atom_site_fract_z
  _atom_site_occupancy
  C   C1        1.0  0.71927  0.74311  0.99680  1.0000
  C   C2        1.0  0.71126  0.82897  0.05739  1.0000
  C   C3        1.0  0.74254  0.83616  0.08310  1.0000
  C   C4        1.0  0.76679  0.81392  0.06718  1.0000
  C   C5        1.0  0.68645  0.85344  0.06794  1.0000
  H   H1        1.0  0.74753  0.85963  0.11328  1.0000
  H   H2        1.0  0.79109  0.82043  0.08515  1.0000
  O   O1        1.0  0.69195  0.87944  0.10901  1.0000
  C   C6        1.0  0.24469  0.22168  0.94489  1.0000
  C   C7        1.0  0.33079  0.20987  0.02648  1.0000
  C   C8        1.0  0.33742  0.23827  0.08219  1.0000
  C   C9        1.0  0.31384  0.26121  0.09358  1.0000
  C   C10       1.0  0.35618  0.18598  0.01825  1.0000
  H   H3        1.0  0.36125  0.24188  0.11757  1.0000
  H   H4        1.0  0.31984  0.28295  0.13867  1.0000
  O   O2        1.0  0.38303  0.19046  0.05919  1.0000
  C   C11       1.0  0.07089  0.52966  0.99983  1.0000
  C   C12       1.0  0.10088  0.51810  0.05277  1.0000
  H   H5        1.0  0.12005  0.53311  0.07757  1.0000
  C   C13       1.0  0.02995  0.57160  0.93145  1.0000
  C   C14       1.0  0.02114  0.60433  0.86324  1.0000
  H   H6        1.0  0.03749  0.62473  0.81905  1.0000
  C   C15       1.0  0.06162  0.56212  0.95846  1.0000
  C   C16       1.0  0.72797  0.77481  0.01667  1.0000
  C   C17       1.0  0.70365  0.79836  0.02293  1.0000
  N   N1        1.0  0.65567  0.84557  0.02832  1.0000
  C   C18       1.0  0.28283  0.25662  0.05087  1.0000
  C   C19       1.0  0.29351  0.17556  0.92259  1.0000
  C   C20       1.0  0.26334  0.17039  0.87462  1.0000
  C   C21       1.0  0.23946  0.19308  0.88540  1.0000
  C   C22       1.0  0.31806  0.15084  0.91099  1.0000
  H   H7        1.0  0.25903  0.14836  0.82781  1.0000
  H   H8        1.0  0.21638  0.18822  0.84502  1.0000
  O   O3        1.0  0.31292  0.12590  0.85829  1.0000
  C   C23       1.0  0.76037  0.78351  0.03049  1.0000
  C   C24       1.0  0.67201  0.79102  0.99467  1.0000
  C   C25       1.0  0.66460  0.76069  0.96289  1.0000
  C   C26       1.0  0.68780  0.73699  0.96627  1.0000
  C   C27       1.0  0.64671  0.81521  0.99505  1.0000
  H   H9        1.0  0.64030  0.75597  0.93724  1.0000
  H   H10       1.0  0.68126  0.71343  0.94263  1.0000
  O   O4        1.0  0.61919  0.80955  0.96671  1.0000
  C   C28       1.0  0.93387  0.47450  0.02692  1.0000
  C   C29       1.0  0.90226  0.48346  0.08404  1.0000
  H   H11       1.0  0.88197  0.46694  0.12263  1.0000
  C   C30       1.0  0.97733  0.43593  0.97633  1.0000
  C   C31       1.0  0.98825  0.40563  0.93040  1.0000
  H   H12       1.0  0.97342  0.38741  0.89604  1.0000
  C   C32       1.0  0.94458  0.44357  0.00635  1.0000
  C   C33       1.0  0.27561  0.22774  0.99242  1.0000
  C   C34       1.0  0.30004  0.20433  0.98042  1.0000
  N   N2        1.0  0.34823  0.15727  0.96309  1.0000
  C   C35       1.0  0.25578  0.72060  0.06358  1.0000
  C   C36       1.0  0.17967  0.71325  0.86413  1.0000
  C   C37       1.0  0.17481  0.74535  0.79599  1.0000
  C   C38       1.0  0.19626  0.76934  0.81505  1.0000
  C   C39       1.0  0.15651  0.68857  0.84154  1.0000
  H   H13       1.0  0.15408  0.75106  0.72692  1.0000
  H   H14       1.0  0.19191  0.79403  0.75785  1.0000
  O   O5        1.0  0.13375  0.69484  0.75772  1.0000
  C   C40       1.0  0.78564  0.24662  0.95854  1.0000
  C   C41       1.0  0.79409  0.32361  0.12435  1.0000
  C   C42       1.0  0.76245  0.32816  0.18617  1.0000
  C   C43       1.0  0.73841  0.30603  0.17516  1.0000
  C   C44       1.0  0.81884  0.34770  0.13495  1.0000
  H   H15       1.0  0.75711  0.34918  0.24392  1.0000
  H   H16       1.0  0.71409  0.31018  0.22688  1.0000
  O   O6        1.0  0.81275  0.37152  0.20034  1.0000
  C   C45       1.0  0.47533  0.06949  0.02680  1.0000
  C   C46       1.0  0.48484  0.09930  0.06855  1.0000
  H   H17       1.0  0.46890  0.11879  0.08501  1.0000
  C   C47       1.0  0.43612  0.02936  0.96952  1.0000
  C   C48       1.0  0.40602  0.02194  0.91000  1.0000
  H   H18       1.0  0.38803  0.03926  0.87358  1.0000
  C   C49       1.0  0.44452  0.06050  0.99423  1.0000
  C   C50       1.0  0.22863  0.72947  0.97411  1.0000
  C   C51       1.0  0.20670  0.70491  0.95228  1.0000
  N   N3        1.0  0.16172  0.65653  0.92241  1.0000
  C   C52       1.0  0.74489  0.27894  0.09986  1.0000
  C   C53       1.0  0.83424  0.29101  0.99360  1.0000
  C   C54       1.0  0.84195  0.26431  0.91934  1.0000
  C   C55       1.0  0.81799  0.24268  0.90126  1.0000
  C   C56       1.0  0.86018  0.31336  0.01073  1.0000
  H   H19       1.0  0.86696  0.26101  0.87471  1.0000
  H   H20       1.0  0.82488  0.22253  0.83945  1.0000
  O   O7        1.0  0.88873  0.30791  0.97488  1.0000
  C   C57       1.0  0.22305  0.76231  0.90395  1.0000
  C   C58       1.0  0.21214  0.67216  0.01728  1.0000
  C   C59       1.0  0.23892  0.66398  0.10224  1.0000
  C   C60       1.0  0.26030  0.68780  0.12469  1.0000
  C   C61       1.0  0.18997  0.64644  0.99605  1.0000
  H   H21       1.0  0.24262  0.63866  0.15131  1.0000
  H   H22       1.0  0.28076  0.68042  0.19279  1.0000
  O   O8        1.0  0.19523  0.61764  0.04181  1.0000
  C   C62       1.0  0.52852  0.93273  0.01807  1.0000
  C   C63       1.0  0.51736  0.90032  0.02690  1.0000
  H   H23       1.0  0.53243  0.87958  0.03003  1.0000
  C   C64       1.0  0.57058  0.97545  0.01412  1.0000
  C   C65       1.0  0.60403  0.98519  0.01142  1.0000
  H   H24       1.0  0.62452  0.96972  0.01080  1.0000
  C   C66       1.0  0.56059  0.94327  0.01589  1.0000
  C   C67       1.0  0.77727  0.27372  0.03648  1.0000
  C   C68       1.0  0.80192  0.29620  0.05126  1.0000
  N   N4        1.0  0.85056  0.34214  0.06668  1.0000
  C   C69       1.0  0.27805  0.74569  0.08601  1.0000
  C   C70       1.0  0.28980  0.83570  0.96379  1.0000
  C   C71       1.0  0.26268  0.84392  0.88178  1.0000
  C   C72       1.0  0.24099  0.82012  0.86283  1.0000
  C   C73       1.0  0.31253  0.86140  0.97921  1.0000
  H   H25       1.0  0.25898  0.86922  0.83242  1.0000
  H   H26       1.0  0.22041  0.82744  0.79564  1.0000
  O   O9        1.0  0.30762  0.89020  0.93196  1.0000
  C   C74       1.0  0.76042  0.22407  0.94032  1.0000
  C   C75       1.0  0.67134  0.21108  0.05475  1.0000
  C   C76       1.0  0.66362  0.23778  0.12889  1.0000
  C   C77       1.0  0.68743  0.25995  0.14230  1.0000
  C   C78       1.0  0.64569  0.18793  0.04461  1.0000
  H   H27       1.0  0.63874  0.24064  0.17723  1.0000
  H   H28       1.0  0.68052  0.28032  0.20227  1.0000
  O   O10       1.0  0.61730  0.19210  0.09176  1.0000
  C   C79       1.0  0.93425  0.52858  0.01764  1.0000
  C   C80       1.0  0.90256  0.51617  0.08062  1.0000
  H   H29       1.0  0.88266  0.53043  0.11902  1.0000
  C   C81       1.0  0.97769  0.57105  0.93767  1.0000
  C   C82       1.0  0.98864  0.60393  0.86536  1.0000
  H   H30       1.0  0.97369  0.62383  0.82076  1.0000
  C   C83       1.0  0.94491  0.56118  0.97770  1.0000
  C   C84       1.0  0.27271  0.77848  0.01370  1.0000
  C   C85       1.0  0.29515  0.80301  0.03036  1.0000
  N   N5        1.0  0.34133  0.85128  0.04678  1.0000
  C   C86       1.0  0.71973  0.25616  0.08371  1.0000
  C   C87       1.0  0.71121  0.17963  0.91345  1.0000
  C   C88       1.0  0.74269  0.17572  0.84661  1.0000
  C   C89       1.0  0.76680  0.19759  0.85991  1.0000
  C   C90       1.0  0.68645  0.15565  0.90111  1.0000
  H   H31       1.0  0.74787  0.15537  0.78315  1.0000
  H   H32       1.0  0.79102  0.19387  0.80504  1.0000
  O   O11       1.0  0.69199  0.13299  0.82587  1.0000
  C   C91       1.0  0.24541  0.78737  0.92570  1.0000
  C   C92       1.0  0.32269  0.79468  0.11415  1.0000
  C   C93       1.0  0.32693  0.76276  0.18793  1.0000
  C   C94       1.0  0.30479  0.73883  0.17556  1.0000
  C   C95       1.0  0.34710  0.81923  0.12396  1.0000
  H   H33       1.0  0.34785  0.75703  0.25525  1.0000
  H   H34       1.0  0.30872  0.71432  0.23746  1.0000
  O   O12       1.0  0.37139  0.81271  0.19513  1.0000
  C   C96       1.0  0.07066  0.47533  0.02160  1.0000
  C   C97       1.0  0.10075  0.48516  0.06523  1.0000
  H   H35       1.0  0.11980  0.46903  0.10098  1.0000
  C   C98       1.0  0.02925  0.43579  0.98149  1.0000
  C   C99       1.0  0.02051  0.40539  0.93646  1.0000
  H   H36       1.0  0.03703  0.38680  0.91166  1.0000
  C   C100      1.0  0.06084  0.44405  0.00691  1.0000
  C   C101      1.0  0.72810  0.22905  0.00582  1.0000
  C   C102      1.0  0.70350  0.20648  0.99160  1.0000
  N   N6        1.0  0.65536  0.15995  0.98113  1.0000
  C   C103      1.0  0.74342  0.71829  0.01103  1.0000
  C   C104      1.0  0.83321  0.71406  0.96464  1.0000
  C   C105      1.0  0.84177  0.74634  0.95207  1.0000
  C   C106      1.0  0.81826  0.76897  0.97693  1.0000
  C   C107      1.0  0.85800  0.69037  0.93451  1.0000
  H   H37       1.0  0.86706  0.75332  0.92473  1.0000
  H   H38       1.0  0.82573  0.79379  0.97258  1.0000
  O   O13       1.0  0.88525  0.69835  0.86674  1.0000
  C   C108      1.0  0.21968  0.24533  0.95931  1.0000
  C   C109      1.0  0.20919  0.32658  0.08474  1.0000
  C   C110      1.0  0.23951  0.33206  0.13015  1.0000
  C   C111      1.0  0.26329  0.30924  0.12082  1.0000
  C   C112      1.0  0.18478  0.35146  0.09352  1.0000
  H   H39       1.0  0.24400  0.35446  0.17308  1.0000
  H   H40       1.0  0.28653  0.31432  0.15852  1.0000
  O   O14       1.0  0.19031  0.37675  0.14213  1.0000
  C   C113      1.0  0.52887  0.06844  0.04602  1.0000
  C   C114      1.0  0.51724  0.09858  0.08206  1.0000
  H   H41       1.0  0.53181  0.11722  0.11416  1.0000
  C   C115      1.0  0.57101  0.02713  0.01977  1.0000
  C   C116      1.0  0.60437  0.01743  0.00886  1.0000
  H   H42       1.0  0.62524  0.03287  0.00186  1.0000
  C   C117      1.0  0.56120  0.05872  0.03362  1.0000
  C   C118      1.0  0.77625  0.72798  0.00348  1.0000
  C   C119      1.0  0.80046  0.70442  0.99764  1.0000
  N   N7        1.0  0.84856  0.65732  0.98936  1.0000
  C   C120      1.0  0.25786  0.28035  0.06440  1.0000
  C   C121      1.0  0.17150  0.29189  0.98590  1.0000
  C   C122      1.0  0.16492  0.26349  0.93030  1.0000
  C   C123      1.0  0.18866  0.24077  0.91668  1.0000
  C   C124      1.0  0.14607  0.31575  0.99411  1.0000
  H   H43       1.0  0.14102  0.25974  0.89599  1.0000
  H   H44       1.0  0.18274  0.21921  0.86986  1.0000
  O   O15       1.0  0.11895  0.31111  0.95729  1.0000
  C   C125      1.0  0.78548  0.76054  0.00316  1.0000
  C   C126      1.0  0.79167  0.67138  0.02678  1.0000
  C   C127      1.0  0.75940  0.66210  0.04717  1.0000
  C   C128      1.0  0.73571  0.68535  0.03339  1.0000
  C   C129      1.0  0.81641  0.64673  0.04891  1.0000
  H   H45       1.0  0.75324  0.63651  0.07322  1.0000
  H   H46       1.0  0.71074  0.67752  0.04500  1.0000
  O   O16       1.0  0.80969  0.61859  0.11562  1.0000
  C   C130      1.0  0.47442  0.93300  0.01526  1.0000
  C   C131      1.0  0.48455  0.90034  0.03208  1.0000
  H   H47       1.0  0.46890  0.87953  0.04422  1.0000
  C   C132      1.0  0.43580  0.97777  0.96659  1.0000
  C   C133      1.0  0.40588  0.98990  0.90621  1.0000
  H   H48       1.0  0.38787  0.97598  0.86283  1.0000
  C   C134      1.0  0.44338  0.94465  0.99240  1.0000
  C   C135      1.0  0.22685  0.27418  0.01827  1.0000
  C   C136      1.0  0.20241  0.29757  0.03013  1.0000
  N   N8        1.0  0.15449  0.34491  0.04365  1.0000
  N   N9        1.0  0.00324  0.55154  0.97017  1.0000
  N   N10       1.0  0.00281  0.45458  0.99911  1.0000
  N   N11       1.0  0.45444  0.00230  0.99810  1.0000
  N   N12       1.0  0.55088  0.00132  0.01943  1.0000
  N   N13       1.0  0.05310  0.50289  0.98737  1.0000
  H   H49       1.0  0.02961  0.50308  0.96498  1.0000
  N   N14       1.0  0.95247  0.50241  0.99146  1.0000
  H   H50       1.0  0.97676  0.50323  0.96078  1.0000
  N   N15       1.0  0.50259  0.05130  0.01824  1.0000
  H   H51       1.0  0.50317  0.02816  0.99739  1.0000
  N   N16       1.0  0.50172  0.95163  0.01121  1.0000
  H   H52       1.0  0.50181  0.97597  0.00630  1.0000
  C   C137      1.0  0.71813  0.74047  0.49678  1.0000
  C   C138      1.0  0.71022  0.82605  0.56283  1.0000
  C   C139      1.0  0.74139  0.83284  0.59206  1.0000
  C   C140      1.0  0.76560  0.81056  0.57568  1.0000
  C   C141      1.0  0.68535  0.85048  0.57466  1.0000
  H   H53       1.0  0.74634  0.85599  0.62608  1.0000
  H   H54       1.0  0.78979  0.81673  0.59700  1.0000
  O   O17       1.0  0.69061  0.87631  0.61800  1.0000
  C   C142      1.0  0.24186  0.21678  0.43014  1.0000
  C   C143      1.0  0.32802  0.20523  0.51263  1.0000
  C   C144      1.0  0.33443  0.23359  0.56897  1.0000
  C   C145      1.0  0.31074  0.25642  0.58042  1.0000
  C   C146      1.0  0.35341  0.18124  0.50773  1.0000
  H   H55       1.0  0.35815  0.23720  0.60577  1.0000
  H   H56       1.0  0.31656  0.27797  0.62770  1.0000
  O   O18       1.0  0.38016  0.18561  0.54999  1.0000
  C   C147      1.0  0.06708  0.52333  0.49782  1.0000
  C   C148      1.0  0.09676  0.51159  0.55398  1.0000
  H   H57       1.0  0.11554  0.52648  0.58389  1.0000
  C   C149      1.0  0.02673  0.56566  0.42652  1.0000
  C   C150      1.0  0.01840  0.59858  0.35930  1.0000
  H   H58       1.0  0.03500  0.61878  0.31663  1.0000
  C   C151      1.0  0.05820  0.55584  0.45531  1.0000
  C   C152      1.0  0.72690  0.77203  0.51859  1.0000
  C   C153      1.0  0.70268  0.79570  0.52467  1.0000
  N   N17       1.0  0.65465  0.84281  0.53388  1.0000
  C   C154      1.0  0.27986  0.25185  0.53608  1.0000
  C   C155      1.0  0.29082  0.17084  0.40846  1.0000
  C   C156      1.0  0.26059  0.16536  0.36180  1.0000
  C   C157      1.0  0.23663  0.18797  0.37261  1.0000
  C   C158      1.0  0.31555  0.14632  0.39753  1.0000
  H   H59       1.0  0.25629  0.14316  0.31666  1.0000
  H   H60       1.0  0.21342  0.18284  0.33447  1.0000
  O   O19       1.0  0.31090  0.12162  0.34163  1.0000
  C   C159      1.0  0.75925  0.78045  0.53521  1.0000
  C   C160      1.0  0.67119  0.78870  0.49271  1.0000
  C   C161      1.0  0.66377  0.75856  0.45841  1.0000
  C   C162      1.0  0.68677  0.73465  0.46342  1.0000
  C   C163      1.0  0.64602  0.81304  0.49251  1.0000
  H   H61       1.0  0.63960  0.75416  0.42964  1.0000
  H   H62       1.0  0.68017  0.71119  0.43872  1.0000
  O   O20       1.0  0.61883  0.80799  0.45773  1.0000
  C   C164      1.0  0.92991  0.46992  0.52015  1.0000
  C   C165      1.0  0.89830  0.47918  0.57572  1.0000
  H   H63       1.0  0.87791  0.46276  0.61412  1.0000
  C   C166      1.0  0.97303  0.43041  0.47586  1.0000
  C   C167      1.0  0.98335  0.39937  0.43722  1.0000
  H   H64       1.0  0.96812  0.38073  0.41010  1.0000
  C   C168      1.0  0.94038  0.43875  0.50343  1.0000
  C   C169      1.0  0.27282  0.22300  0.47693  1.0000
  C   C170      1.0  0.29732  0.19965  0.46558  1.0000
  N   N18       1.0  0.34531  0.15240  0.45437  1.0000
  C   C171      1.0  0.25217  0.71428  0.55994  1.0000
  C   C172      1.0  0.17607  0.70728  0.35984  1.0000
  C   C173      1.0  0.17134  0.73944  0.29216  1.0000
  C   C174      1.0  0.19300  0.76334  0.31043  1.0000
  C   C175      1.0  0.15249  0.68265  0.34093  1.0000
  H   H65       1.0  0.15058  0.74536  0.22380  1.0000
  H   H66       1.0  0.18877  0.78809  0.25345  1.0000
  O   O21       1.0  0.12872  0.68908  0.26507  1.0000
  C   C176      1.0  0.78151  0.24231  0.45242  1.0000
  C   C177      1.0  0.79025  0.31863  0.62482  1.0000
  C   C178      1.0  0.75868  0.32291  0.68911  1.0000
  C   C179      1.0  0.73454  0.30116  0.67497  1.0000
  C   C180      1.0  0.81515  0.34220  0.64031  1.0000
  H   H67       1.0  0.75353  0.34336  0.75185  1.0000
  H   H68       1.0  0.71028  0.30510  0.72847  1.0000
  O   O22       1.0  0.80964  0.36489  0.71555  1.0000
  C   C181      1.0  0.47019  0.06308  0.51895  1.0000
  C   C182      1.0  0.47833  0.09232  0.57108  1.0000
  H   H69       1.0  0.46116  0.11035  0.59573  1.0000
  C   C183      1.0  0.43150  0.02249  0.46114  1.0000
  C   C184      1.0  0.40100  0.01409  0.40904  1.0000
  H   H70       1.0  0.38192  0.03046  0.37781  1.0000
  C   C185      1.0  0.43953  0.05369  0.48557  1.0000
  C   C186      1.0  0.22519  0.72330  0.46926  1.0000
  C   C187      1.0  0.20326  0.69880  0.44647  1.0000
  N   N19       1.0  0.15839  0.65038  0.41477  1.0000
  C   C188      1.0  0.74091  0.27453  0.59565  1.0000
  C   C189      1.0  0.83007  0.28689  0.48506  1.0000
  C   C190      1.0  0.83769  0.26029  0.40991  1.0000
  C   C191      1.0  0.81379  0.23843  0.39398  1.0000
  C   C192      1.0  0.85591  0.30965  0.49748  1.0000
  H   H71       1.0  0.86261  0.25730  0.36255  1.0000
  H   H72       1.0  0.82058  0.21828  0.33209  1.0000
  O   O23       1.0  0.88425  0.30510  0.45092  1.0000
  C   C193      1.0  0.21978  0.75620  0.39932  1.0000
  C   C194      1.0  0.20885  0.66598  0.50903  1.0000
  C   C195      1.0  0.23548  0.65766  0.59515  1.0000
  C   C196      1.0  0.25661  0.68143  0.62053  1.0000
  C   C197      1.0  0.18699  0.64025  0.48450  1.0000
  H   H73       1.0  0.23924  0.63229  0.64256  1.0000
  H   H74       1.0  0.27689  0.67398  0.69001  1.0000
  O   O24       1.0  0.19259  0.61142  0.52551  1.0000
  C   C198      1.0  0.52611  0.92795  0.52156  1.0000
  C   C199      1.0  0.51571  0.89528  0.53049  1.0000
  H   H75       1.0  0.53128  0.87486  0.53658  1.0000
  C   C200      1.0  0.56740  0.97167  0.51456  1.0000
  C   C201      1.0  0.60068  0.98226  0.50939  1.0000
  H   H76       1.0  0.62155  0.96729  0.50983  1.0000
  C   C202      1.0  0.55796  0.93914  0.52109  1.0000
  C   C203      1.0  0.77322  0.26937  0.53098  1.0000
  C   C204      1.0  0.79789  0.29175  0.54666  1.0000
  N   N20       1.0  0.84643  0.33752  0.56295  1.0000
  C   C205      1.0  0.27431  0.73930  0.58497  1.0000
  C   C206      1.0  0.28724  0.82899  0.45760  1.0000
  C   C207      1.0  0.26041  0.83741  0.37357  1.0000
  C   C208      1.0  0.23833  0.81385  0.35617  1.0000
  C   C209      1.0  0.31057  0.85440  0.46845  1.0000
  H   H77       1.0  0.25747  0.86269  0.32065  1.0000
  H   H78       1.0  0.21808  0.82133  0.28658  1.0000
  O   O25       1.0  0.30629  0.88310  0.41425  1.0000
  C   C210      1.0  0.75631  0.21960  0.43606  1.0000
  C   C211      1.0  0.66711  0.20737  0.54612  1.0000
  C   C212      1.0  0.65945  0.23407  0.62032  1.0000
  C   C213      1.0  0.68342  0.25581  0.63692  1.0000
  C   C214      1.0  0.64121  0.18487  0.53075  1.0000
  H   H79       1.0  0.63450  0.23726  0.66624  1.0000
  H   H80       1.0  0.67661  0.27592  0.69912  1.0000
  O   O26       1.0  0.61269  0.19044  0.56664  1.0000
  C   C215      1.0  0.93064  0.52399  0.51003  1.0000
  C   C216      1.0  0.89884  0.51190  0.57221  1.0000
  H   H81       1.0  0.87908  0.52634  0.61080  1.0000
  C   C217      1.0  0.97452  0.56591  0.43225  1.0000
  C   C218      1.0  0.98594  0.59871  0.36190  1.0000
  H   H82       1.0  0.97131  0.61900  0.31951  1.0000
  C   C219      1.0  0.94165  0.55648  0.47077  1.0000
  C   C220      1.0  0.26929  0.77209  0.51172  1.0000
  C   C221      1.0  0.29191  0.79642  0.52884  1.0000
  N   N21       1.0  0.33888  0.84418  0.54066  1.0000
  C   C222      1.0  0.71570  0.25195  0.57811  1.0000
  C   C223      1.0  0.70708  0.17472  0.41496  1.0000
  C   C224      1.0  0.73866  0.17022  0.35179  1.0000
  C   C225      1.0  0.76272  0.19246  0.36115  1.0000
  C   C226      1.0  0.68235  0.15038  0.40709  1.0000
  H   H83       1.0  0.74397  0.14911  0.29486  1.0000
  H   H84       1.0  0.78702  0.18825  0.30927  1.0000
  O   O27       1.0  0.68849  0.12653  0.34214  1.0000
  C   C227      1.0  0.24224  0.78113  0.42153  1.0000
  C   C228      1.0  0.31899  0.78805  0.61677  1.0000
  C   C229      1.0  0.32273  0.75614  0.69261  1.0000
  C   C230      1.0  0.30068  0.73232  0.67735  1.0000
  C   C231      1.0  0.34337  0.81255  0.62883  1.0000
  H   H85       1.0  0.34322  0.75032  0.76345  1.0000
  H   H86       1.0  0.30432  0.70778  0.73971  1.0000
  O   O28       1.0  0.36658  0.80642  0.70942  1.0000
  C   C232      1.0  0.06666  0.46909  0.51783  1.0000
  C   C233      1.0  0.09659  0.47870  0.56442  1.0000
  H   H87       1.0  0.11531  0.46227  0.60128  1.0000
  C   C234      1.0  0.02503  0.42960  0.47980  1.0000
  C   C235      1.0  0.01565  0.39876  0.44186  1.0000
  H   H88       1.0  0.03151  0.37935  0.42178  1.0000
  C   C236      1.0  0.05670  0.43775  0.50439  1.0000
  C   C237      1.0  0.72399  0.22484  0.50021  1.0000
  C   C238      1.0  0.69935  0.20224  0.48711  1.0000
  N   N22       1.0  0.65073  0.15588  0.47703  1.0000
  C   C239      1.0  0.74211  0.71547  0.51201  1.0000
  C   C240      1.0  0.83189  0.71085  0.46654  1.0000
  C   C241      1.0  0.84054  0.74306  0.45564  1.0000
  C   C242      1.0  0.81712  0.76574  0.48178  1.0000
  C   C243      1.0  0.85655  0.68714  0.43367  1.0000
  H   H89       1.0  0.86584  0.75000  0.42866  1.0000
  H   H90       1.0  0.82464  0.79052  0.47816  1.0000
  O   O29       1.0  0.88384  0.69518  0.36652  1.0000
  C   C244      1.0  0.21675  0.24039  0.44450  1.0000
  C   C245      1.0  0.20581  0.32121  0.57498  1.0000
  C   C246      1.0  0.23606  0.32660  0.62145  1.0000
  C   C247      1.0  0.26006  0.30413  0.60883  1.0000
  C   C248      1.0  0.18109  0.34561  0.58870  1.0000
  H   H91       1.0  0.24030  0.34862  0.66863  1.0000
  H   H92       1.0  0.28324  0.30918  0.64738  1.0000
  O   O30       1.0  0.18585  0.37033  0.64408  1.0000
  C   C249      1.0  0.52361  0.06361  0.54035  1.0000
  C   C250      1.0  0.51069  0.09258  0.58575  1.0000
  H   H93       1.0  0.52440  0.11087  0.62668  1.0000
  C   C251      1.0  0.56681  0.02359  0.51348  1.0000
  C   C252      1.0  0.60037  0.01460  0.50220  1.0000
  H   H94       1.0  0.62097  0.03056  0.49176  1.0000
  C   C253      1.0  0.55624  0.05491  0.52809  1.0000
  C   C254      1.0  0.77496  0.72497  0.50605  1.0000
  C   C255      1.0  0.79908  0.70134  0.49921  1.0000
  N   N23       1.0  0.84693  0.65409  0.48473  1.0000
  C   C256      1.0  0.25481  0.27546  0.54997  1.0000
  C   C257      1.0  0.16840  0.28684  0.47164  1.0000
  C   C258      1.0  0.16192  0.25842  0.41576  1.0000
  C   C259      1.0  0.18568  0.23567  0.40278  1.0000
  C   C260      1.0  0.14289  0.31064  0.48072  1.0000
  H   H95       1.0  0.13802  0.25460  0.38166  1.0000
  H   H96       1.0  0.17975  0.21398  0.35711  1.0000
  O   O31       1.0  0.11589  0.30629  0.44122  1.0000
  C   C261      1.0  0.78431  0.75743  0.50735  1.0000
  C   C262      1.0  0.79016  0.66835  0.52682  1.0000
  C   C263      1.0  0.75787  0.65921  0.54670  1.0000
  C   C264      1.0  0.73429  0.68257  0.53290  1.0000
  C   C265      1.0  0.81484  0.64361  0.54753  1.0000
  H   H97       1.0  0.75163  0.63363  0.57150  1.0000
  H   H98       1.0  0.70931  0.67483  0.54323  1.0000
  O   O32       1.0  0.80816  0.61552  0.61521  1.0000
  C   C266      1.0  0.47212  0.92706  0.51067  1.0000
  C   C267      1.0  0.48297  0.89463  0.52994  1.0000
  H   H99       1.0  0.46781  0.87351  0.53993  1.0000
  C   C268      1.0  0.43223  0.97077  0.46103  1.0000
  C   C269      1.0  0.40148  0.98197  0.40750  1.0000
  H   H100      1.0  0.38298  0.96743  0.37258  1.0000
  C   C270      1.0  0.44079  0.93788  0.48665  1.0000
  C   C271      1.0  0.22384  0.26927  0.50329  1.0000
  C   C272      1.0  0.19928  0.29252  0.51640  1.0000
  N   N24       1.0  0.15109  0.33937  0.53492  1.0000
  N   N25       1.0  0.99977  0.54596  0.46430  1.0000
  N   N26       1.0  0.99890  0.44895  0.49397  1.0000
  N   N27       1.0  0.45058  0.99594  0.48730  1.0000
  N   N28       1.0  0.54720  0.99722  0.51664  1.0000
  N   N29       1.0  0.04931  0.49673  0.48251  1.0000
  H   H101      1.0  0.02593  0.49702  0.45802  1.0000
  N   N30       1.0  0.94870  0.49769  0.48430  1.0000
  H   H102      1.0  0.97304  0.49841  0.45538  1.0000
  N   N31       1.0  0.49817  0.04611  0.50555  1.0000
  H   H103      1.0  0.49990  0.02348  0.47800  1.0000
  N   N32       1.0  0.49891  0.94630  0.50991  1.0000
  H   H104      1.0  0.49832  0.97065  0.50509  1.0000
  C  Sn1       1.0  0.06155  0.59091  0.97635  1.0000
  C   C273      1.0  0.06288  0.56215  0.91361  1.0000
  C  Sn2       1.0  0.09243  0.54939  0.86536  1.0000
  C  Sn3       1.0  0.12126  0.56571  0.88023  1.0000
  C   C274      1.0  0.11993  0.59445  0.94296  1.0000
  C  Sn4       1.0  0.09038  0.60723  0.99122  1.0000
  O  Te1       1.0  0.05317  0.63801  0.02383  1.0000
  O  Te2       1.0  0.09315  0.52061  0.80293  1.0000
  O  Te3       1.0  0.15108  0.55337  0.83267  1.0000
  O  Te4       1.0  0.11108  0.67077  0.05364  1.0000
  Mg  Mg1       1.0  0.13961  0.51344  0.75492  1.0000
  Mg  Mg2       1.0  0.06463  0.67795  0.10177  1.0000
  C  Sn5       1.0  0.92582  0.37721  0.08713  1.0000
  C   C275      1.0  0.90329  0.37406  0.99924  1.0000
  C  Sn6       1.0  0.87448  0.38647  0.94657  1.0000
  C  Sn7       1.0  0.84619  0.36685  0.98258  1.0000
  C   C276      1.0  0.86874  0.37002  0.07044  1.0000
  C  Sn8       1.0  0.89753  0.35759  0.12314  1.0000
  O  Te5       1.0  0.95488  0.36531  0.13858  1.0000
  O  Te6       1.0  0.87397  0.41817  0.85884  1.0000
  O  Te7       1.0  0.81712  0.37878  0.93104  1.0000
  O  Te8       1.0  0.89805  0.32592  0.21084  1.0000
  Mg  Mg3       1.0  0.82859  0.42345  0.81528  1.0000
  Mg  Mg4       1.0  0.94341  0.32062  0.25453  1.0000
  C  Sn9       1.0  0.40636  0.13350  0.83025  1.0000
  C   C277      1.0  0.37487  0.13079  0.90959  1.0000
  C  Sn10      1.0  0.38724  0.14051  0.04570  1.0000
  C  Sn11      1.0  0.41015  0.11770  0.10380  1.0000
  C   C278      1.0  0.44162  0.12042  0.02450  1.0000
  C  Sn12      1.0  0.42927  0.11068  0.88835  1.0000
  O  Te9       1.0  0.41488  0.15874  0.69441  1.0000
  O  Te10      1.0  0.35561  0.13829  0.12295  1.0000
  O  Te11      1.0  0.40160  0.09244  0.23975  1.0000
  O  Te12      1.0  0.46087  0.11291  0.81114  1.0000
  Mg  Mg5       1.0  0.35562  0.09963  0.30349  1.0000
  Mg  Mg6       1.0  0.46090  0.15156  0.63066  1.0000
  C  Sn13      1.0  0.58982  0.88685  0.18017  1.0000
  C   C279      1.0  0.58978  0.91631  0.06834  1.0000
  C  Sn14      1.0  0.58851  0.88687  0.91546  1.0000
  C  Sn15      1.0  0.60914  0.86226  0.87342  1.0000
  C   C280      1.0  0.60917  0.83282  0.98520  1.0000
  C  Sn16      1.0  0.61045  0.86224  0.13813  1.0000
  O  Te13      1.0  0.56947  0.88203  0.33230  1.0000
  O  Te14      1.0  0.58805  0.91652  0.80572  1.0000
  O  Te15      1.0  0.62950  0.86710  0.72114  1.0000
  O  Te16      1.0  0.61090  0.83261  0.24781  1.0000
  Mg  Mg7       1.0  0.62017  0.91154  0.61337  1.0000
  Mg  Mg8       1.0  0.57878  0.83755  0.44015  1.0000
  C  Sn17      1.0  0.91748  0.61548  0.09800  1.0000
  C   C281      1.0  0.91690  0.58738  0.02973  1.0000
  C  Sn18      1.0  0.87323  0.54859  0.91812  1.0000
  C  Sn19      1.0  0.85111  0.57319  0.87373  1.0000
  C   C282      1.0  0.85170  0.60127  0.94195  1.0000
  C  Sn20      1.0  0.89536  0.64008  0.05360  1.0000
  O  Te17      1.0  0.93994  0.61897  0.20932  1.0000
  O  Te18      1.0  0.87310  0.52029  0.85155  1.0000
  O  Te19      1.0  0.82864  0.56967  0.76231  1.0000
  O  Te20      1.0  0.89550  0.66837  0.12013  1.0000
  Mg  Mg9       1.0  0.83794  0.52678  0.70495  1.0000
  Mg  Mg10      1.0  0.93066  0.66191  0.26667  1.0000
  C  Sn21      1.0  0.08499  0.38511  0.16804  1.0000
  C   C283      1.0  0.08748  0.41564  0.06512  1.0000
  C  Sn22      1.0  0.09050  0.38804  0.93061  1.0000
  C  Sn23      1.0  0.11291  0.36420  0.89819  1.0000
  C   C284      1.0  0.13183  0.36847  0.00105  1.0000
  C  Sn24      1.0  0.10740  0.36127  0.13562  1.0000
  O  Te21      1.0  0.06037  0.37847  0.30181  1.0000
  O  Te22      1.0  0.09251  0.41873  0.82951  1.0000
  O  Te23      1.0  0.13755  0.37087  0.76429  1.0000
  O  Te24      1.0  0.10538  0.33060  0.23667  1.0000
  Mg  Mg11      1.0  0.13029  0.41618  0.66229  1.0000
  Mg  Mg12      1.0  0.06761  0.33312  0.40385  1.0000
  C  Sn25      1.0  0.59374  0.13876  0.93779  1.0000
  C   C285      1.0  0.64261  0.17372  0.02126  1.0000
  C  Sn26      1.0  0.65492  0.14485  0.10010  1.0000
  C  Sn27      1.0  0.63948  0.11518  0.09534  1.0000
  C   C286      1.0  0.61206  0.11501  0.01189  1.0000
  C  Sn28      1.0  0.57830  0.10908  0.93303  1.0000
  O  Te25      1.0  0.58186  0.16791  0.85983  1.0000
  O  Te26      1.0  0.68238  0.14564  0.18281  1.0000
  O  Te27      1.0  0.65139  0.08601  0.17340  1.0000
  O  Te28      1.0  0.55086  0.10830  0.85034  1.0000
  Mg  Mg13      1.0  0.68943  0.09957  0.27008  1.0000
  Mg  Mg14      1.0  0.54380  0.15435  0.76296  1.0000
  C  Sn29      1.0  0.40598  0.86963  0.96739  1.0000
  C   C287      1.0  0.39702  0.90422  0.05834  1.0000
  C  Sn30      1.0  0.38524  0.93219  0.11015  1.0000
  C  Sn31      1.0  0.40422  0.96096  0.07012  1.0000
  C   C288      1.0  0.41316  0.92636  0.97920  1.0000
  C  Sn32      1.0  0.42496  0.89840  0.92737  1.0000
  O  Te29      1.0  0.41727  0.84138  0.91688  1.0000
  O  Te30      1.0  0.35479  0.93141  0.20099  1.0000
  O  Te31      1.0  0.39290  0.98922  0.12073  1.0000
  O  Te32      1.0  0.45538  0.89917  0.83655  1.0000
  Mg  Mg15      1.0  0.34994  0.97606  0.24176  1.0000
  Mg  Mg16      1.0  0.46025  0.85454  0.79565  1.0000
  C  Sn33      1.0  0.12398  0.57565  0.38900  1.0000
  C   C289      1.0  0.09251  0.57596  0.46633  1.0000
  C  Sn34      1.0  0.07995  0.60421  0.51130  1.0000
  C  Sn35      1.0  0.09924  0.63276  0.47820  1.0000
  C   C290      1.0  0.13069  0.63244  0.40089  1.0000
  C  Sn36      1.0  0.14328  0.60419  0.35590  1.0000
  O  Te33      1.0  0.13604  0.54713  0.34511  1.0000
  O  Te34      1.0  0.04842  0.60393  0.58853  1.0000
  O  Te35      1.0  0.08716  0.66129  0.52216  1.0000
  O  Te36      1.0  0.17478  0.60447  0.27869  1.0000
  Mg  Mg17      1.0  0.04282  0.64879  0.62465  1.0000
  Mg  Mg18      1.0  0.18040  0.55963  0.24243  1.0000
  C  Sn37      1.0  0.89845  0.36426  0.68056  1.0000
  C   C291      1.0  0.87068  0.36436  0.59950  1.0000
  C  Sn38      1.0  0.86605  0.38877  0.46273  1.0000
  C  Sn39      1.0  0.88967  0.41359  0.40571  1.0000
  C   C292      1.0  0.91742  0.41348  0.48674  1.0000
  C  Sn40      1.0  0.92208  0.38908  0.62355  1.0000
  O  Te37      1.0  0.90259  0.33962  0.81704  1.0000
  O  Te38      1.0  0.83808  0.38837  0.38375  1.0000
  O  Te39      1.0  0.88551  0.43824  0.26913  1.0000
  O  Te40      1.0  0.95002  0.38947  0.70248  1.0000
  Mg  Mg19      1.0  0.84342  0.42719  0.20295  1.0000
  Mg  Mg20      1.0  0.94471  0.35065  0.88323  1.0000
  C  Sn41      1.0  0.37383  0.07376  0.53011  1.0000
  C   C293      1.0  0.40510  0.07542  0.44813  1.0000
  C  Sn42      1.0  0.42014  0.10523  0.38075  1.0000
  C  Sn43      1.0  0.40359  0.13400  0.39571  1.0000
  C   C294      1.0  0.37234  0.13233  0.47768  1.0000
  C  Sn44      1.0  0.35728  0.10252  0.54507  1.0000
  O  Te41      1.0  0.35927  0.04369  0.59652  1.0000
  O  Te42      1.0  0.45141  0.10628  0.29929  1.0000
  O  Te43      1.0  0.41818  0.16408  0.32921  1.0000
  O  Te44      1.0  0.32603  0.10147  0.62651  1.0000
  Mg  Mg21      1.0  0.46105  0.15302  0.22961  1.0000
  Mg  Mg22      1.0  0.31637  0.05475  0.69631  1.0000
  C  Sn45      1.0  0.58847  0.88361  0.69052  1.0000
  C   C295      1.0  0.58792  0.91297  0.57831  1.0000
  C  Sn46      1.0  0.60798  0.91852  0.42511  1.0000
  C  Sn47      1.0  0.62902  0.89422  0.38311  1.0000
  C   C296      1.0  0.62956  0.86488  0.49525  1.0000
  C  Sn48      1.0  0.60951  0.85930  0.64851  1.0000
  O  Te45      1.0  0.56821  0.87858  0.84297  1.0000
  O  Te46      1.0  0.60701  0.94807  0.31501  1.0000
  O  Te47      1.0  0.64929  0.89927  0.23050  1.0000
  O  Te48      1.0  0.61047  0.82978  0.75856  1.0000
  Mg  Mg23      1.0  0.63920  0.94346  0.12230  1.0000
  Mg  Mg24      1.0  0.57828  0.83435  0.95125  1.0000
  C  Sn49      1.0  0.86447  0.59187  0.44546  1.0000
  C   C297      1.0  0.86597  0.62028  0.51029  1.0000
  C  Sn50      1.0  0.89524  0.63177  0.54561  1.0000
  C  Sn51      1.0  0.92362  0.61452  0.51541  1.0000
  C   C298      1.0  0.92211  0.58613  0.45059  1.0000
  C  Sn52      1.0  0.89284  0.57461  0.41526  1.0000
  O  Te49      1.0  0.83494  0.58082  0.41107  1.0000
  O  Te50      1.0  0.89614  0.66023  0.61041  1.0000
  O  Te51      1.0  0.95316  0.62559  0.54986  1.0000
  O  Te52      1.0  0.89194  0.54618  0.35047  1.0000
  Mg  Mg25      1.0  0.94209  0.66554  0.63688  1.0000
  Mg  Mg26      1.0  0.84601  0.54086  0.32387  1.0000
  C  Sn53      1.0  0.11452  0.41129  0.37827  1.0000
  C   C299      1.0  0.08409  0.41015  0.46967  1.0000
  C  Sn54      1.0  0.07587  0.38586  0.61075  1.0000
  C  Sn55      1.0  0.09855  0.36223  0.66162  1.0000
  C   C300      1.0  0.12896  0.36338  0.57026  1.0000
  C  Sn56      1.0  0.13719  0.38766  0.42913  1.0000
  O  Te53      1.0  0.12221  0.43578  0.23764  1.0000
  O  Te54      1.0  0.04530  0.38521  0.70009  1.0000
  O  Te55      1.0  0.09083  0.33773  0.80238  1.0000
  O  Te56      1.0  0.16775  0.38831  0.33984  1.0000
  Mg  Mg27      1.0  0.04616  0.34707  0.88303  1.0000
  Mg  Mg28      1.0  0.16692  0.42646  0.15695  1.0000
  C  Sn57      1.0  0.58841  0.13555  0.43983  1.0000
  C   C301      1.0  0.61649  0.13515  0.51857  1.0000
  C  Sn58      1.0  0.62865  0.10600  0.59480  1.0000
  C  Sn59      1.0  0.61243  0.07664  0.59219  1.0000
  C   C302      1.0  0.58437  0.07705  0.51347  1.0000
  C  Sn60      1.0  0.57219  0.10619  0.43722  1.0000
  O  Te57      1.0  0.57669  0.16497  0.36441  1.0000
  O  Te58      1.0  0.65675  0.10621  0.67279  1.0000
  O  Te59      1.0  0.62418  0.04720  0.66770  1.0000
  O  Te60      1.0  0.54411  0.10599  0.35924  1.0000
  Mg  Mg29      1.0  0.66328  0.05996  0.75806  1.0000
  Mg  Mg30      1.0  0.53757  0.15222  0.27386  1.0000
  C  Sn61      1.0  0.41091  0.88526  0.37034  1.0000
  C   C303      1.0  0.41137  0.91313  0.44064  1.0000
  C  Sn62      1.0  0.38859  0.91711  0.57499  1.0000
  C  Sn63      1.0  0.36488  0.89272  0.64053  1.0000
  C   C304      1.0  0.36443  0.86487  0.57026  1.0000
  C  Sn64      1.0  0.38719  0.86087  0.43588  1.0000
  O  Te61      1.0  0.43391  0.88178  0.23610  1.0000
  O  Te62      1.0  0.38953  0.94519  0.64314  1.0000
  O  Te63      1.0  0.34187  0.89622  0.77488  1.0000
  O  Te64      1.0  0.38627  0.83280  0.36776  1.0000
  Mg  Mg31      1.0  0.35306  0.93877  0.82503  1.0000
  Mg  Mg32      1.0  0.42273  0.83920  0.18595  1.0000
