data_image0
_chemical_formula_structural       NC3HOHNC3HOHNC3HOHNC3HOHNC3HOHNC3HOHNC3HOHNC3HOHNC3HOHNC3HOHNC3HOHNC3HOHSnCSn2CSnTe4Mg2SnCSn2CSnTe4Mg2SnCSn2CSnTe4Mg2SnCSn2CSnTe4Mg2SnCSn2CSnTe4Mg2SnCSn2CSnTe4Mg2SnCSn2CSnTe4Mg2SnCSn2CSnTe4Mg2SnCSn2CSnTe4Mg2SnCSn2CSnTe4Mg2SnCSn2CSnTe4Mg2SnCSn2CSnTe4Mg2SnCSn2CSnTe4Mg2SnCSn2CSnTe4Mg2SnCSn2CSnTe4Mg2SnCSn2CSnTe4Mg2SnCSn2CSnTe4Mg2SnCSn2CSnTe4Mg2
_chemical_formula_sum              "N12 C72 H24 O12 Sn72 Te72 Mg36"
_cell_length_a       37.4508
_cell_length_b       37.6329
_cell_length_c       8.17716
_cell_angle_alpha    86.9845
_cell_angle_beta     120.145
_cell_angle_gamma    119.952

_symmetry_space_group_name_H-M    'P1'
_space_group_IT_number       1

loop_
  _space_group_symop_operation_xyz
  'x, y, z'

loop_
  _atom_site_type_symbol
  _atom_site_label
  _atom_site_symmetry_multiplicity
  _atom_site_fract_x
  _atom_site_fract_y
  _atom_site_fract_z
  _atom_site_occupancy
  N   N1        1.0  0.77794  0.39990  0.97967  1.0000
  C   C1        1.0  0.75015  0.36059  0.98630  1.0000
  C   C2        1.0  0.70948  0.34776  0.99558  1.0000
  C   C3        1.0  0.69527  0.37711  0.00048  1.0000
  H   H1        1.0  0.75929  0.33739  0.98441  1.0000
  O   O1        1.0  0.72021  0.41563  0.00125  1.0000
  H   H2        1.0  0.76535  0.41887  0.98655  1.0000
  N   N2        1.0  0.59875  0.37847  0.01194  1.0000
  C   C4        1.0  0.63821  0.38944  0.00770  1.0000
  C   C5        1.0  0.65145  0.36104  0.00536  1.0000
  C   C6        1.0  0.62268  0.31734  0.00800  1.0000
  H   H3        1.0  0.66118  0.42184  0.00684  1.0000
  O   O2        1.0  0.58469  0.30381  0.01275  1.0000
  H   H4        1.0  0.58101  0.34671  0.01784  1.0000
  N   N3        1.0  0.62249  0.21919  0.00805  1.0000
  C   C7        1.0  0.61118  0.24773  0.01014  1.0000
  C   C8        1.0  0.63895  0.28930  0.00640  1.0000
  C   C9        1.0  0.68239  0.30393  0.00211  1.0000
  H   H5        1.0  0.57904  0.23842  0.01392  1.0000
  O   O3        1.0  0.69667  0.27938  0.00402  1.0000
  H   H6        1.0  0.65475  0.23306  0.00756  1.0000
  N   N4        1.0  0.22366  0.59910  0.02262  1.0000
  C   C10       1.0  0.25151  0.63893  0.02091  1.0000
  C   C11       1.0  0.29217  0.65241  0.01009  1.0000
  C   C12       1.0  0.30638  0.62327  0.00112  1.0000
  H   H7        1.0  0.24268  0.66204  0.02916  1.0000
  O   O4        1.0  0.28132  0.58444  0.99669  1.0000
  H   H8        1.0  0.23649  0.58064  0.01161  1.0000
  N   N5        1.0  0.40372  0.62341  0.98990  1.0000
  C   C13       1.0  0.36395  0.61168  0.99314  1.0000
  C   C14       1.0  0.35043  0.63981  0.99754  1.0000
  C   C15       1.0  0.37922  0.68375  0.99788  1.0000
  H   H9        1.0  0.34099  0.57899  0.99120  1.0000
  O   O5        1.0  0.41739  0.69779  0.99379  1.0000
  H   H10       1.0  0.42121  0.65541  0.98611  1.0000
  N   N6        1.0  0.37875  0.78152  0.99972  1.0000
  C   C16       1.0  0.39000  0.75303  0.99597  1.0000
  C   C17       1.0  0.36271  0.71149  0.00115  1.0000
  C   C18       1.0  0.31936  0.69654  0.00673  1.0000
  H   H11       1.0  0.42171  0.76235  0.98902  1.0000
  O   O6        1.0  0.30532  0.72108  0.00816  1.0000
  H   H12       1.0  0.34716  0.76776  0.00509  1.0000
  N   N7        1.0  0.77688  0.40224  0.47990  1.0000
  C   C19       1.0  0.74930  0.36246  0.48296  1.0000
  C   C20       1.0  0.70864  0.34881  0.49374  1.0000
  C   C21       1.0  0.69395  0.37760  0.50165  1.0000
  H   H13       1.0  0.75870  0.33964  0.47750  1.0000
  O   O7        1.0  0.71821  0.41630  0.50317  1.0000
  H   H14       1.0  0.76402  0.42077  0.48863  1.0000
  N   N8        1.0  0.59695  0.37686  0.51808  1.0000
  C   C22       1.0  0.63655  0.38859  0.51325  1.0000
  C   C23       1.0  0.65022  0.36068  0.50844  1.0000
  C   C24       1.0  0.62173  0.31664  0.50838  1.0000
  H   H15       1.0  0.65876  0.42108  0.51088  1.0000
  O   O8        1.0  0.58341  0.30228  0.51172  1.0000
  H   H16       1.0  0.57914  0.34470  0.51892  1.0000
  N   N9        1.0  0.62305  0.21931  0.50462  1.0000
  C   C25       1.0  0.61144  0.24755  0.50830  1.0000
  C   C26       1.0  0.63868  0.28929  0.50515  1.0000
  C   C27       1.0  0.68211  0.30477  0.49944  1.0000
  H   H17       1.0  0.57924  0.23779  0.51233  1.0000
  O   O9        1.0  0.69666  0.28061  0.49870  1.0000
  H   H18       1.0  0.65494  0.23352  0.50142  1.0000
  N   N10       1.0  0.22241  0.60000  0.52392  1.0000
  C   C28       1.0  0.25049  0.63958  0.52056  1.0000
  C   C29       1.0  0.29092  0.65250  0.50923  1.0000
  C   C30       1.0  0.30443  0.62293  0.49903  1.0000
  H   H19       1.0  0.24190  0.66293  0.52754  1.0000
  O   O10       1.0  0.27893  0.58417  0.49400  1.0000
  H   H20       1.0  0.23481  0.58106  0.51443  1.0000
  N   N11       1.0  0.40014  0.62143  0.48080  1.0000
  C   C31       1.0  0.36082  0.61041  0.48650  1.0000
  C   C32       1.0  0.34823  0.63903  0.49374  1.0000
  C   C33       1.0  0.37778  0.68303  0.49651  1.0000
  H   H21       1.0  0.33778  0.57801  0.48715  1.0000
  O   O11       1.0  0.41607  0.69668  0.49375  1.0000
  H   H22       1.0  0.41877  0.65367  0.48221  1.0000
  N   N12       1.0  0.37788  0.78104  0.49575  1.0000
  C   C34       1.0  0.38920  0.75251  0.49399  1.0000
  C   C35       1.0  0.36179  0.71112  0.50031  1.0000
  C   C36       1.0  0.31853  0.69653  0.50597  1.0000
  H   H23       1.0  0.42087  0.76154  0.48725  1.0000
  O   O12       1.0  0.30487  0.72138  0.50759  1.0000
  H   H24       1.0  0.34618  0.76730  0.50039  1.0000
  C  Sn1       1.0  0.97714  0.51804  0.90181  1.0000
  C   C37       1.0  0.95410  0.47955  0.94335  1.0000
  C  Sn2       1.0  0.84138  0.40305  0.04259  1.0000
  C  Sn3       1.0  0.89117  0.42280  0.10168  1.0000
  C   C38       1.0  0.91419  0.46128  0.06017  1.0000
  C  Sn4       1.0  0.02693  0.53779  0.96090  1.0000
  O  Te1       1.0  0.95073  0.53662  0.80244  1.0000
  O  Te2       1.0  0.81755  0.36456  0.08240  1.0000
  O  Te3       1.0  0.91757  0.40419  0.20111  1.0000
  O  Te4       1.0  0.05073  0.57627  0.92112  1.0000
  Mg  Mg1       1.0  0.86906  0.35170  0.22159  1.0000
  Mg  Mg2       1.0  0.99927  0.58917  0.78204  1.0000
  C  Sn5       1.0  0.13011  0.52151  0.07187  1.0000
  C   C39       1.0  0.10514  0.53884  0.07694  1.0000
  C  Sn6       1.0  0.11644  0.57872  0.04263  1.0000
  C  Sn7       1.0  0.15346  0.60176  0.00230  1.0000
  C   C40       1.0  0.31683  0.64177  0.99721  1.0000
  C  Sn8       1.0  0.16714  0.54454  0.03153  1.0000
  O  Te5       1.0  0.11821  0.48158  0.10659  1.0000
  O  Te6       1.0  0.09098  0.59540  0.04855  1.0000
  O  Te7       1.0  0.30378  0.69906  0.96757  1.0000
  O  Te8       1.0  0.19257  0.52787  0.02560  1.0000
  Mg  Mg3       1.0  0.25882  0.70832  0.99146  1.0000
  Mg  Mg4       1.0  0.16316  0.47228  0.08256  1.0000
  C  Sn9       1.0  0.32454  0.41886  0.02582  1.0000
  C   C41       1.0  0.34479  0.46231  0.04063  1.0000
  C  Sn10      1.0  0.38492  0.48630  0.02244  1.0000
  C  Sn11      1.0  0.54363  0.52379  0.98861  1.0000
  C   C42       1.0  0.52338  0.48038  0.97378  1.0000
  C  Sn12      1.0  0.48325  0.45636  0.99199  1.0000
  O  Te9       1.0  0.28442  0.39550  0.04447  1.0000
  O  Te10      1.0  0.40455  0.52968  0.03786  1.0000
  O  Te11      1.0  0.58378  0.54720  0.96997  1.0000
  O  Te12      1.0  0.46362  0.41300  0.97656  1.0000
  Mg  Mg5       1.0  0.45917  0.54800  0.00196  1.0000
  Mg  Mg6       1.0  0.27057  0.33731  0.01233  1.0000
  C  Sn13      1.0  0.54547  0.58966  0.97146  1.0000
  C   C43       1.0  0.58297  0.60108  0.94124  1.0000
  C  Sn14      1.0  0.61355  0.64325  0.94986  1.0000
  C  Sn15      1.0  0.60652  0.67469  0.98964  1.0000
  C   C44       1.0  0.43063  0.60592  0.01986  1.0000
  C  Sn16      1.0  0.40002  0.56375  0.01123  1.0000
  O  Te13      1.0  0.51534  0.54731  0.96217  1.0000
  O  Te14      1.0  0.65078  0.65390  0.91908  1.0000
  O  Te15      1.0  0.63669  0.71707  0.99890  1.0000
  O  Te16      1.0  0.36282  0.55311  0.04202  1.0000
  Mg  Mg7       1.0  0.68234  0.71585  0.94678  1.0000
  Mg  Mg8       1.0  0.33126  0.49116  0.01446  1.0000
  C  Sn17      1.0  0.97277  0.01391  0.99200  1.0000
  C   C45       1.0  0.88135  0.98383  0.02721  1.0000
  C  Sn18      1.0  0.90752  0.96750  0.02592  1.0000
  C  Sn19      1.0  0.02468  0.98033  0.98854  1.0000
  C   C46       1.0  0.97770  0.95309  0.95332  1.0000
  C  Sn20      1.0  0.95150  0.96939  0.95461  1.0000
  O  Te17      1.0  0.94727  0.03094  0.99398  1.0000
  O  Te18      1.0  0.95447  0.99539  0.06159  1.0000
  O  Te19      1.0  0.05022  0.96331  0.98658  1.0000
  O  Te20      1.0  0.90458  0.94153  0.91894  1.0000
  Mg  Mg9       1.0  0.97461  0.95689  0.04329  1.0000
  Mg  Mg10      1.0  0.88439  0.98000  0.93711  1.0000
  C  Sn21      1.0  0.51829  0.91225  0.95319  1.0000
  C   C47       1.0  0.52940  0.88277  0.93689  1.0000
  C  Sn22      1.0  0.57455  0.89642  0.96288  1.0000
  C  Sn23      1.0  0.47092  0.88311  0.00618  1.0000
  C   C48       1.0  0.45982  0.91256  0.02249  1.0000
  C  Sn24      1.0  0.55309  0.95628  0.99649  1.0000
  O  Te21      1.0  0.47293  0.89788  0.92664  1.0000
  O  Te22      1.0  0.58480  0.86635  0.94580  1.0000
  O  Te23      1.0  0.51631  0.89746  0.03272  1.0000
  O  Te24      1.0  0.40441  0.92898  0.01358  1.0000
  Mg  Mg11      1.0  0.65165  0.90160  0.99479  1.0000
  Mg  Mg12      1.0  0.47601  0.95112  0.96473  1.0000
  C  Sn25      1.0  0.84892  0.46542  0.93756  1.0000
  C   C49       1.0  0.81777  0.42261  0.91940  1.0000
  C  Sn26      1.0  0.83405  0.39514  0.95107  1.0000
  C  Sn27      1.0  0.74408  0.35343  0.00208  1.0000
  C   C50       1.0  0.77520  0.39622  0.02025  1.0000
  C  Sn28      1.0  0.89736  0.48107  0.98857  1.0000
  O  Te25      1.0  0.83186  0.49232  0.90524  1.0000
  O  Te26      1.0  0.80223  0.35246  0.93199  1.0000
  O  Te27      1.0  0.76112  0.32649  0.03440  1.0000
  O  Te28      1.0  0.79074  0.46637  0.00766  1.0000
  Mg  Mg13      1.0  0.84245  0.32831  0.99088  1.0000
  Mg  Mg14      1.0  0.88899  0.54790  0.94890  1.0000
  C  Sn29      1.0  0.66504  0.44255  0.98787  1.0000
  C   C51       1.0  0.70224  0.45330  0.95666  1.0000
  C  Sn30      1.0  0.73370  0.49541  0.96776  1.0000
  C  Sn31      1.0  0.58947  0.47011  0.01109  1.0000
  C   C52       1.0  0.55230  0.45935  0.04231  1.0000
  C  Sn32      1.0  0.52081  0.41725  0.03120  1.0000
  O  Te29      1.0  0.63401  0.40025  0.97605  1.0000
  O  Te30      1.0  0.77061  0.50539  0.93593  1.0000
  O  Te31      1.0  0.62054  0.51244  0.02289  1.0000
  O  Te32      1.0  0.48392  0.40727  0.06304  1.0000
  Mg  Mg15      1.0  0.80372  0.56755  0.96804  1.0000
  Mg  Mg16      1.0  0.45082  0.34513  0.03107  1.0000
  C  Sn33      1.0  0.66273  0.17721  0.94360  1.0000
  C   C53       1.0  0.67543  0.14850  0.93502  1.0000
  C  Sn34      1.0  0.72222  0.16318  0.97596  1.0000
  C  Sn35      1.0  0.61864  0.15014  0.02667  1.0000
  C   C54       1.0  0.60594  0.17883  0.03526  1.0000
  C  Sn36      1.0  0.69757  0.22151  0.99431  1.0000
  O  Te33      1.0  0.61575  0.16181  0.90211  1.0000
  O  Te34      1.0  0.73406  0.13386  0.96637  1.0000
  O  Te35      1.0  0.66565  0.16552  0.06816  1.0000
  O  Te36      1.0  0.54731  0.19346  0.00392  1.0000
  Mg  Mg17      1.0  0.66436  0.11306  0.03564  1.0000
  Mg  Mg18      1.0  0.61703  0.21430  0.93478  1.0000
  C  Sn37      1.0  0.97596  0.52281  0.39914  1.0000
  C   C55       1.0  0.95255  0.48428  0.43970  1.0000
  C  Sn38      1.0  0.97800  0.46498  0.53978  1.0000
  C  Sn39      1.0  0.02790  0.48461  0.60072  1.0000
  C   C56       1.0  0.05129  0.52312  0.56019  1.0000
  C  Sn40      1.0  0.02586  0.54244  0.46007  1.0000
  O  Te37      1.0  0.94980  0.54154  0.29891  1.0000
  O  Te38      1.0  0.95381  0.42646  0.57859  1.0000
  O  Te39      1.0  0.05405  0.46585  0.70101  1.0000
  O  Te40      1.0  0.05003  0.58095  0.42130  1.0000
  Mg  Mg19      1.0  0.00508  0.41337  0.71955  1.0000
  Mg  Mg20      1.0  0.99880  0.59407  0.28044  1.0000
  C  Sn41      1.0  0.13709  0.53028  0.45650  1.0000
  C   C57       1.0  0.16866  0.57319  0.47767  1.0000
  C  Sn42      1.0  0.16499  0.60415  0.54216  1.0000
  C  Sn43      1.0  0.12904  0.59196  0.58654  1.0000
  C   C58       1.0  0.09750  0.54907  0.56540  1.0000
  C  Sn44      1.0  0.10114  0.51809  0.50088  1.0000
  O  Te41      1.0  0.14142  0.49988  0.39182  1.0000
  O  Te42      1.0  0.19695  0.64685  0.56213  1.0000
  O  Te43      1.0  0.12473  0.62241  0.65126  1.0000
  O  Te44      1.0  0.06921  0.47542  0.48095  1.0000
  Mg  Mg21      1.0  0.17667  0.67650  0.65528  1.0000
  Mg  Mg22      1.0  0.08948  0.44574  0.38791  1.0000
  C  Sn45      1.0  0.54198  0.52660  0.50465  1.0000
  C   C59       1.0  0.52941  0.48670  0.54107  1.0000
  C  Sn46      1.0  0.48707  0.46162  0.54436  1.0000
  C  Sn47      1.0  0.45664  0.47673  0.51041  1.0000
  C   C60       1.0  0.46921  0.51660  0.47399  1.0000
  C  Sn48      1.0  0.51154  0.54171  0.47071  1.0000
  O  Te45      1.0  0.58447  0.55113  0.50204  1.0000
  O  Te46      1.0  0.47528  0.42184  0.58115  1.0000
  O  Te47      1.0  0.41412  0.45216  0.51305  1.0000
  O  Te48      1.0  0.52334  0.58146  0.43391  1.0000
  Mg  Mg23      1.0  0.41358  0.40016  0.56957  1.0000
  Mg  Mg24      1.0  0.58501  0.60316  0.44535  1.0000
  C  Sn49      1.0  0.48893  0.60281  0.56997  1.0000
  C   C61       1.0  0.46911  0.55945  0.55644  1.0000
  C  Sn50      1.0  0.41913  0.53155  0.48503  1.0000
  C  Sn51      1.0  0.38831  0.54732  0.42578  1.0000
  C   C62       1.0  0.40812  0.59066  0.43929  1.0000
  C  Sn52      1.0  0.45811  0.61858  0.51072  1.0000
  O  Te49      1.0  0.53900  0.63012  0.64178  1.0000
  O  Te50      1.0  0.40017  0.48834  0.47293  1.0000
  O  Te51      1.0  0.33820  0.51997  0.35393  1.0000
  O  Te52      1.0  0.47707  0.66177  0.52279  1.0000
  Mg  Mg25      1.0  0.32962  0.46376  0.36526  1.0000
  Mg  Mg26      1.0  0.54760  0.68637  0.63034  1.0000
  C  Sn53      1.0  0.03673  0.00696  0.45016  1.0000
  C   C63       1.0  0.51954  0.03470  0.43292  1.0000
  C  Sn54      1.0  0.98355  0.02444  0.46002  1.0000
  C  Sn55      1.0  0.96089  0.98565  0.50543  1.0000
  C   C64       1.0  0.97638  0.95794  0.52269  1.0000
  C  Sn56      1.0  0.01406  0.96817  0.49557  1.0000
  O  Te53      1.0  0.07447  0.01788  0.42246  1.0000
  O  Te54      1.0  0.46699  0.05267  0.44197  1.0000
  O  Te55      1.0  0.92311  0.97475  0.53312  1.0000
  O  Te56      1.0  0.02893  0.93997  0.51364  1.0000
  Mg  Mg27      1.0  0.91577  0.02363  0.49317  1.0000
  Mg  Mg28      1.0  0.08186  0.96899  0.46257  1.0000
  C  Sn57      1.0  0.41020  0.88496  0.56237  1.0000
  C   C65       1.0  0.45085  0.90898  0.54724  1.0000
  C  Sn58      1.0  0.46598  0.88890  0.48194  1.0000
  C  Sn59      1.0  0.43993  0.84388  0.43057  1.0000
  C   C66       1.0  0.39931  0.81989  0.44567  1.0000
  C  Sn60      1.0  0.38415  0.83994  0.51099  1.0000
  O  Te57      1.0  0.39572  0.90570  0.62799  1.0000
  O  Te58      1.0  0.50674  0.91359  0.46810  1.0000
  O  Te59      1.0  0.45445  0.82315  0.36492  1.0000
  O  Te60      1.0  0.34341  0.81528  0.52481  1.0000
  Mg  Mg29      1.0  0.51222  0.87062  0.37089  1.0000
  Mg  Mg30      1.0  0.33789  0.85821  0.62190  1.0000
  C  Sn61      1.0  0.86305  0.40796  0.40049  1.0000
  C   C67       1.0  0.89471  0.45122  0.42740  1.0000
  C  Sn62      1.0  0.89127  0.48145  0.49945  1.0000
  C  Sn63      1.0  0.85546  0.46817  0.54569  1.0000
  C   C68       1.0  0.82383  0.42493  0.51881  1.0000
  C  Sn64      1.0  0.82723  0.39468  0.44673  1.0000
  O  Te61      1.0  0.86714  0.37829  0.32829  1.0000
  O  Te62      1.0  0.92332  0.52452  0.52506  1.0000
  O  Te63      1.0  0.85138  0.49789  0.61794  1.0000
  O  Te64      1.0  0.79522  0.35163  0.42115  1.0000
  Mg  Mg31      1.0  0.90336  0.55287  0.62763  1.0000
  Mg  Mg32      1.0  0.81516  0.32326  0.31870  1.0000
  C  Sn65      1.0  0.60852  0.45536  0.57887  1.0000
  C   C69       1.0  0.58928  0.41215  0.56822  1.0000
  C  Sn66      1.0  0.53970  0.38413  0.50259  1.0000
  C  Sn67      1.0  0.50868  0.39962  0.44631  1.0000
  C   C70       1.0  0.52792  0.44281  0.45694  1.0000
  C  Sn68      1.0  0.57750  0.47085  0.52260  1.0000
  O  Te65      1.0  0.65819  0.48279  0.64492  1.0000
  O  Te66      1.0  0.52131  0.34107  0.49327  1.0000
  O  Te67      1.0  0.45897  0.37215  0.38024  1.0000
  O  Te68      1.0  0.59589  0.51389  0.53189  1.0000
  Mg  Mg33      1.0  0.45114  0.31623  0.39348  1.0000
  Mg  Mg34      1.0  0.66605  0.53875  0.63156  1.0000
  C  Sn69      1.0  0.52652  0.12060  0.45447  1.0000
  C   C71       1.0  0.53803  0.09143  0.43838  1.0000
  C  Sn70      1.0  0.58371  0.10551  0.46876  1.0000
  C  Sn71      1.0  0.61864  0.14969  0.51632  1.0000
  C   C72       1.0  0.60714  0.17884  0.53242  1.0000
  C  Sn72      1.0  0.56145  0.16478  0.50203  1.0000
  O  Te69      1.0  0.48063  0.10580  0.42349  1.0000
  O  Te70      1.0  0.59436  0.07574  0.45180  1.0000
  O  Te71      1.0  0.66456  0.16447  0.54729  1.0000
  O  Te72      1.0  0.55080  0.19452  0.51900  1.0000
  Mg  Mg35      1.0  0.66188  0.11154  0.50768  1.0000
  Mg  Mg36      1.0  0.48331  0.15876  0.46326  1.0000
