data_image0
_chemical_formula_structural       OC4H3N2OC4H3N2OC4H3N2OC4H3N2OC4H3N2OC4H3N2C6OC4H3N2OC4H3N2OC4H3N2OC4H3N2OC4H3N2OC4H3N2C6SnCSn2CSnTe4Mg2SnCSn2CSnTe4Mg2SnCSn2CSnTe4Mg2SnCSn2CSnTe4Mg2SnCSn2CSnTe4Mg2SnCSn2CSnTe4Mg2SnCSn2CSnTe4Mg2SnCSn2CSnTe4Mg2SnCSn2CSnTe4Mg2SnCSn2CSnTe4Mg2SnCSn2CSnTe4Mg2SnCSn2CSnTe4Mg2
_chemical_formula_sum              "O12 C84 H36 N24 Sn48 Te48 Mg24"
_cell_length_a       36.8204
_cell_length_b       37.0594
_cell_length_c       8.05426
_cell_angle_alpha    120.36
_cell_angle_beta     86.7322
_cell_angle_gamma    120.346

_symmetry_space_group_name_H-M    'P1'
_space_group_IT_number       1

loop_
  _space_group_symop_operation_xyz
  'x, y, z'

loop_
  _atom_site_type_symbol
  _atom_site_label
  _atom_site_symmetry_multiplicity
  _atom_site_fract_x
  _atom_site_fract_y
  _atom_site_fract_z
  _atom_site_occupancy
  O   O1        1.0  0.41489  0.94122  0.24131  1.0000
  C   C1        1.0  0.48731  0.95648  0.26831  1.0000
  C   C2        1.0  0.47275  0.91341  0.27596  1.0000
  C   C3        1.0  0.45730  0.96897  0.25056  1.0000
  C   C4        1.0  0.35314  0.70473  0.24403  1.0000
  H   H1        1.0  0.41152  0.91267  0.24751  1.0000
  H   H2        1.0  0.49757  0.90691  0.29682  1.0000
  H   H3        1.0  0.55436  0.97742  0.29406  1.0000
  N   N1        1.0  0.37704  0.68631  0.23924  1.0000
  N   N2        1.0  0.43166  0.88403  0.26006  1.0000
  O   O2        1.0  0.05270  0.47147  0.26794  1.0000
  C   C5        1.0  0.04310  0.52994  0.25133  1.0000
  C   C6        1.0  0.08776  0.55814  0.24929  1.0000
  C   C7        1.0  0.02681  0.48642  0.25666  1.0000
  C   C8        1.0  0.29276  0.64169  0.24661  1.0000
  H   H4        1.0  0.08272  0.49655  0.26762  1.0000
  H   H5        1.0  0.09736  0.58890  0.23084  1.0000
  H   H6        1.0  0.02691  0.57702  0.23451  1.0000
  N   N3        1.0  0.31101  0.68393  0.24919  1.0000
  N   N4        1.0  0.11496  0.54647  0.26439  1.0000
  O   O3        1.0  0.53382  0.58350  0.25711  1.0000
  C   C9        1.0  0.47194  0.51300  0.25156  1.0000
  C   C10       1.0  0.44351  0.52903  0.25318  1.0000
  C   C11       1.0  0.51659  0.54086  0.25158  1.0000
  C   C12       1.0  0.35594  0.64410  0.23861  1.0000
  H   H7        1.0  0.50865  0.58761  0.25171  1.0000
  H   H8        1.0  0.41007  0.50620  0.25724  1.0000
  H   H9        1.0  0.42139  0.44766  0.24729  1.0000
  N   N5        1.0  0.31366  0.61987  0.23920  1.0000
  N   N6        1.0  0.45691  0.56831  0.24696  1.0000
  O   O4        1.0  0.58917  0.05562  0.27526  1.0000
  C   C13       1.0  0.51676  0.04042  0.25001  1.0000
  C   C14       1.0  0.53106  0.08310  0.24000  1.0000
  C   C15       1.0  0.54682  0.02805  0.26821  1.0000
  C   C16       1.0  0.64675  0.28959  0.25538  1.0000
  H   H10       1.0  0.59242  0.08400  0.26831  1.0000
  H   H11       1.0  0.50611  0.08964  0.22168  1.0000
  H   H12       1.0  0.44983  0.01975  0.22481  1.0000
  N   N7        1.0  0.62145  0.30622  0.25648  1.0000
  N   N8        1.0  0.57191  0.11213  0.25205  1.0000
  O   O5        1.0  0.94503  0.53212  0.22739  1.0000
  C   C17       1.0  0.95504  0.47403  0.24424  1.0000
  C   C18       1.0  0.91065  0.44572  0.24799  1.0000
  C   C19       1.0  0.97121  0.51742  0.23846  1.0000
  C   C20       1.0  0.70576  0.35355  0.25202  1.0000
  H   H13       1.0  0.91510  0.50699  0.22648  1.0000
  H   H14       1.0  0.90202  0.41590  0.27112  1.0000
  H   H15       1.0  0.97104  0.42676  0.25979  1.0000
  N   N9        1.0  0.68896  0.31169  0.25156  1.0000
  N   N10       1.0  0.88251  0.45591  0.22958  1.0000
  O   O6        1.0  0.46384  0.40883  0.23828  1.0000
  C   C21       1.0  0.52575  0.47892  0.24096  1.0000
  C   C22       1.0  0.55394  0.46269  0.23951  1.0000
  C   C23       1.0  0.48115  0.45120  0.24168  1.0000
  C   C24       1.0  0.64129  0.34821  0.25583  1.0000
  H   H16       1.0  0.48909  0.40488  0.24530  1.0000
  H   H17       1.0  0.58703  0.48431  0.22923  1.0000
  H   H18       1.0  0.57637  0.54436  0.24552  1.0000
  N   N11       1.0  0.68346  0.37364  0.25694  1.0000
  N   N12       1.0  0.54045  0.42405  0.25112  1.0000
  C   C25       1.0  0.53145  0.98644  0.27762  1.0000
  C   C26       1.0  0.01493  0.54457  0.24253  1.0000
  C   C27       1.0  0.45519  0.46874  0.24627  1.0000
  C   C28       1.0  0.47271  0.01076  0.24219  1.0000
  C   C29       1.0  0.98314  0.45942  0.25317  1.0000
  C   C30       1.0  0.54249  0.52316  0.24559  1.0000
  O   O7        1.0  0.41373  0.94825  0.74623  1.0000
  C   C31       1.0  0.48580  0.96222  0.76719  1.0000
  C   C32       1.0  0.47105  0.91924  0.77617  1.0000
  C   C33       1.0  0.45610  0.97525  0.75159  1.0000
  C   C34       1.0  0.35349  0.71074  0.74527  1.0000
  H   H19       1.0  0.41007  0.91966  0.75249  1.0000
  H   H20       1.0  0.49570  0.91236  0.79525  1.0000
  H   H21       1.0  0.55245  0.98189  0.78762  1.0000
  N   N13       1.0  0.37831  0.69328  0.73980  1.0000
  N   N14       1.0  0.43011  0.89044  0.76382  1.0000
  O   O8        1.0  0.05437  0.46974  0.77635  1.0000
  C   C35       1.0  0.04409  0.52600  0.74560  1.0000
  C   C36       1.0  0.08843  0.55372  0.73964  1.0000
  C   C37       1.0  0.02810  0.48396  0.76071  1.0000
  C   C38       1.0  0.29416  0.64702  0.74905  1.0000
  H   H22       1.0  0.08435  0.49468  0.77682  1.0000
  H   H23       1.0  0.09671  0.58224  0.70875  1.0000
  H   H24       1.0  0.02802  0.57162  0.71603  1.0000
  N   N15       1.0  0.31136  0.68908  0.75061  1.0000
  N   N16       1.0  0.11691  0.54474  0.76624  1.0000
  O   O9        1.0  0.53478  0.58912  0.75813  1.0000
  C   C39       1.0  0.47231  0.51861  0.75079  1.0000
  C   C40       1.0  0.44444  0.53530  0.75345  1.0000
  C   C41       1.0  0.51703  0.54629  0.75148  1.0000
  C   C42       1.0  0.35822  0.65129  0.74070  1.0000
  H   H25       1.0  0.50978  0.59358  0.75310  1.0000
  H   H26       1.0  0.41092  0.51296  0.75801  1.0000
  H   H27       1.0  0.42116  0.45320  0.74463  1.0000
  N   N17       1.0  0.31620  0.62655  0.74304  1.0000
  N   N18       1.0  0.45854  0.57492  0.74830  1.0000
  O   O10       1.0  0.58765  0.06009  0.76807  1.0000
  C   C43       1.0  0.51582  0.04636  0.74911  1.0000
  C   C44       1.0  0.53051  0.08933  0.74048  1.0000
  C   C45       1.0  0.54546  0.03318  0.76386  1.0000
  C   C46       1.0  0.64788  0.29641  0.76056  1.0000
  H   H28       1.0  0.59102  0.08843  0.76024  1.0000
  H   H29       1.0  0.50597  0.09694  0.72796  1.0000
  H   H30       1.0  0.44896  0.02643  0.72897  1.0000
  N   N19       1.0  0.62297  0.31335  0.76026  1.0000
  N   N20       1.0  0.57125  0.11759  0.74806  1.0000
  O   O11       1.0  0.94662  0.52852  0.71514  1.0000
  C   C47       1.0  0.95643  0.47196  0.74654  1.0000
  C   C48       1.0  0.91195  0.44470  0.75219  1.0000
  C   C49       1.0  0.97253  0.51404  0.73144  1.0000
  C   C50       1.0  0.70741  0.35996  0.75688  1.0000
  H   H31       1.0  0.91658  0.50384  0.71689  1.0000
  H   H32       1.0  0.90286  0.41561  0.78060  1.0000
  H   H33       1.0  0.97245  0.42610  0.77490  1.0000
  N   N21       1.0  0.69023  0.31849  0.75943  1.0000
  N   N22       1.0  0.88441  0.45517  0.72830  1.0000
  O   O12       1.0  0.46328  0.41336  0.73301  1.0000
  C   C51       1.0  0.52536  0.48370  0.73884  1.0000
  C   C52       1.0  0.55366  0.46767  0.73885  1.0000
  C   C53       1.0  0.48064  0.45597  0.73812  1.0000
  C   C54       1.0  0.64322  0.35527  0.75912  1.0000
  H   H34       1.0  0.48831  0.40890  0.73628  1.0000
  H   H35       1.0  0.58750  0.49120  0.74103  1.0000
  H   H36       1.0  0.57660  0.54924  0.74683  1.0000
  N   N23       1.0  0.68545  0.38027  0.75881  1.0000
  N   N24       1.0  0.53994  0.42782  0.74138  1.0000
  C   C55       1.0  0.52983  0.99148  0.77336  1.0000
  C   C56       1.0  0.01600  0.54013  0.73078  1.0000
  C   C57       1.0  0.45508  0.47405  0.74433  1.0000
  C   C58       1.0  0.47176  0.01708  0.74338  1.0000
  C   C59       1.0  0.98452  0.45763  0.76032  1.0000
  C   C60       1.0  0.54261  0.52824  0.74585  1.0000
  C  Sn1       1.0  0.43105  0.79943  0.16984  1.0000
  C   C61       1.0  0.41421  0.82776  0.19540  1.0000
  C  Sn2       1.0  0.37747  0.82046  0.26856  1.0000
  C  Sn3       1.0  0.35714  0.78411  0.31733  1.0000
  C   C62       1.0  0.37398  0.75581  0.29181  1.0000
  C  Sn4       1.0  0.41072  0.76308  0.21861  1.0000
  O  Te1       1.0  0.46781  0.80736  0.09649  1.0000
  O  Te2       1.0  0.36123  0.84921  0.29277  1.0000
  O  Te3       1.0  0.32035  0.77619  0.39072  1.0000
  O  Te4       1.0  0.42697  0.73436  0.19444  1.0000
  Mg  Mg1       1.0  0.31042  0.82464  0.39773  1.0000
  Mg  Mg2       1.0  0.47778  0.75892  0.08959  1.0000
  C  Sn5       1.0  0.21265  0.55811  0.19216  1.0000
  C   C63       1.0  0.23917  0.60228  0.19751  1.0000
  C  Sn6       1.0  0.22641  0.63562  0.25328  1.0000
  C  Sn7       1.0  0.18631  0.62461  0.30491  1.0000
  C   C64       1.0  0.15982  0.58047  0.29958  1.0000
  C  Sn8       1.0  0.17256  0.54710  0.24379  1.0000
  O  Te5       1.0  0.22607  0.52532  0.13597  1.0000
  O  Te6       1.0  0.25346  0.67953  0.25744  1.0000
  O  Te7       1.0  0.17291  0.65744  0.36112  1.0000
  O  Te8       1.0  0.14554  0.50321  0.23965  1.0000
  Mg  Mg3       1.0  0.22100  0.71243  0.34396  1.0000
  Mg  Mg4       1.0  0.17798  0.47030  0.15327  1.0000
  C  Sn9       1.0  0.45017  0.64283  0.29719  1.0000
  C   C65       1.0  0.43571  0.59993  0.29702  1.0000
  C  Sn10      1.0  0.39108  0.56450  0.24854  1.0000
  C  Sn11      1.0  0.36026  0.57207  0.19908  1.0000
  C   C66       1.0  0.37473  0.61494  0.19924  1.0000
  C  Sn12      1.0  0.41935  0.65041  0.24773  1.0000
  O  Te9       1.0  0.49493  0.67776  0.34612  1.0000
  O  Te10      1.0  0.37741  0.52192  0.24946  1.0000
  O  Te11      1.0  0.31547  0.53710  0.15014  1.0000
  O  Te12      1.0  0.43302  0.69296  0.24680  1.0000
  Mg  Mg5       1.0  0.31295  0.48510  0.17219  1.0000
  Mg  Mg6       1.0  0.49747  0.72979  0.32394  1.0000
  C  Sn13      1.0  0.56105  0.17532  0.19284  1.0000
  C   C67       1.0  0.58063  0.15174  0.19705  1.0000
  C  Sn14      1.0  0.62606  0.17696  0.24826  1.0000
  C  Sn15      1.0  0.65249  0.22680  0.29641  1.0000
  C   C68       1.0  0.63291  0.25035  0.29223  1.0000
  C  Sn16      1.0  0.58748  0.22516  0.24099  1.0000
  O  Te13      1.0  0.51557  0.14939  0.14123  1.0000
  O  Te14      1.0  0.64488  0.15260  0.25136  1.0000
  O  Te15      1.0  0.69800  0.25272  0.34804  1.0000
  O  Te16      1.0  0.56866  0.24949  0.23791  1.0000
  Mg  Mg7       1.0  0.70828  0.20358  0.33115  1.0000
  Mg  Mg8       1.0  0.50527  0.19856  0.15825  1.0000
  C  Sn17      1.0  0.80874  0.45389  0.31004  1.0000
  C   C69       1.0  0.83755  0.43893  0.29330  1.0000
  C  Sn18      1.0  0.82186  0.38990  0.23306  1.0000
  C  Sn19      1.0  0.77643  0.35507  0.18849  1.0000
  C   C70       1.0  0.74765  0.37004  0.20520  1.0000
  C  Sn20      1.0  0.76331  0.41907  0.26547  1.0000
  O  Te17      1.0  0.82515  0.50310  0.37052  1.0000
  O  Te18      1.0  0.85130  0.37582  0.21749  1.0000
  O  Te19      1.0  0.76004  0.30583  0.12798  1.0000
  O  Te20      1.0  0.73390  0.43315  0.28101  1.0000
  Mg  Mg9       1.0  0.81311  0.30456  0.12907  1.0000
  Mg  Mg10      1.0  0.77204  0.50439  0.36932  1.0000
  C  Sn21      1.0  0.61646  0.42337  0.20198  1.0000
  C   C71       1.0  0.57270  0.40490  0.20250  1.0000
  C  Sn22      1.0  0.54984  0.36876  0.24753  1.0000
  C  Sn23      1.0  0.57118  0.35071  0.29313  1.0000
  C   C72       1.0  0.61493  0.36918  0.29264  1.0000
  C  Sn24      1.0  0.63780  0.40532  0.24758  1.0000
  O  Te21      1.0  0.63867  0.45949  0.15653  1.0000
  O  Te22      1.0  0.50610  0.35085  0.24704  1.0000
  O  Te23      1.0  0.54893  0.31455  0.33860  1.0000
  O  Te24      1.0  0.68152  0.42323  0.24810  1.0000
  Mg  Mg11      1.0  0.48975  0.30176  0.31867  1.0000
  Mg  Mg12      1.0  0.69791  0.47234  0.17659  1.0000
  C  Sn25      1.0  0.36857  0.82265  0.84015  1.0000
  C   C73       1.0  0.41018  0.84927  0.81998  1.0000
  C  Sn26      1.0  0.43343  0.82676  0.74286  1.0000
  C  Sn27      1.0  0.41469  0.77659  0.68455  1.0000
  C   C74       1.0  0.37311  0.75000  0.70470  1.0000
  C  Sn28      1.0  0.34984  0.77248  0.78184  1.0000
  O  Te25      1.0  0.34592  0.84589  0.91760  1.0000
  O  Te26      1.0  0.47498  0.85414  0.72418  1.0000
  O  Te27      1.0  0.43739  0.75336  0.60706  1.0000
  O  Te28      1.0  0.30831  0.74513  0.80050  1.0000
  Mg  Mg13      1.0  0.49295  0.80609  0.61044  1.0000
  Mg  Mg14      1.0  0.29030  0.79312  0.91411  1.0000
  C  Sn29      1.0  0.19895  0.56460  0.81960  1.0000
  C   C75       1.0  0.16913  0.57720  0.81736  1.0000
  C  Sn30      1.0  0.17789  0.61079  0.76441  1.0000
  C  Sn31      1.0  0.21728  0.63223  0.71250  1.0000
  C   C76       1.0  0.24707  0.61963  0.71472  1.0000
  C  Sn32      1.0  0.23834  0.58604  0.76768  1.0000
  O  Te29      1.0  0.18952  0.53093  0.87300  1.0000
  O  Te30      1.0  0.14758  0.62282  0.76333  1.0000
  O  Te31      1.0  0.22670  0.66593  0.65908  1.0000
  O  Te32      1.0  0.26862  0.57400  0.76875  1.0000
  Mg  Mg15      1.0  0.17518  0.67054  0.67989  1.0000
  Mg  Mg16      1.0  0.24104  0.52627  0.85206  1.0000
  C  Sn33      1.0  0.37638  0.56025  0.67932  1.0000
  C   C77       1.0  0.42066  0.57982  0.68868  1.0000
  C  Sn34      1.0  0.44902  0.62930  0.74282  1.0000
  C  Sn35      1.0  0.43280  0.65986  0.78868  1.0000
  C   C78       1.0  0.38855  0.64029  0.77934  1.0000
  C  Sn36      1.0  0.36016  0.59082  0.72518  1.0000
  O  Te33      1.0  0.34863  0.51069  0.62486  1.0000
  O  Te34      1.0  0.49314  0.64802  0.75107  1.0000
  O  Te35      1.0  0.46060  0.70946  0.84316  1.0000
  O  Te36      1.0  0.31607  0.57210  0.71696  1.0000
  Mg  Mg17      1.0  0.51805  0.71787  0.83314  1.0000
  Mg  Mg18      1.0  0.29114  0.50226  0.63501  1.0000
  C  Sn37      1.0  0.57951  0.22326  0.81448  1.0000
  C   C79       1.0  0.62242  0.25204  0.81150  1.0000
  C  Sn38      1.0  0.64813  0.23231  0.75670  1.0000
  C  Sn39      1.0  0.63058  0.18276  0.70364  1.0000
  C   C80       1.0  0.58770  0.15400  0.70661  1.0000
  C  Sn40      1.0  0.56197  0.17370  0.76143  1.0000
  O  Te37      1.0  0.55440  0.24374  0.86974  1.0000
  O  Te38      1.0  0.69094  0.26182  0.75491  1.0000
  O  Te39      1.0  0.65574  0.16229  0.64837  1.0000
  O  Te40      1.0  0.51918  0.14422  0.76320  1.0000
  Mg  Mg19      1.0  0.71223  0.21719  0.66885  1.0000
  Mg  Mg20      1.0  0.49785  0.18880  0.84912  1.0000
  C  Sn41      1.0  0.81120  0.45592  0.79241  1.0000
  C   C81       1.0  0.83943  0.44102  0.79011  1.0000
  C  Sn42      1.0  0.82307  0.39333  0.74899  1.0000
  C  Sn43      1.0  0.77753  0.35981  0.70920  1.0000
  C   C82       1.0  0.74932  0.37471  0.71147  1.0000
  C  Sn44      1.0  0.76566  0.42240  0.75262  1.0000
  O  Te41      1.0  0.82828  0.50377  0.83387  1.0000
  O  Te42      1.0  0.85194  0.37929  0.74761  1.0000
  O  Te43      1.0  0.76046  0.31193  0.66773  1.0000
  O  Te44      1.0  0.73682  0.43644  0.75398  1.0000
  Mg  Mg21      1.0  0.81293  0.31014  0.68303  1.0000
  Mg  Mg22      1.0  0.77578  0.50557  0.81844  1.0000
  C  Sn45      1.0  0.63692  0.43214  0.79568  1.0000
  C   C83       1.0  0.62382  0.39145  0.80991  1.0000
  C  Sn46      1.0  0.57959  0.35687  0.77467  1.0000
  C  Sn47      1.0  0.54778  0.36307  0.72403  1.0000
  C   C84       1.0  0.56088  0.40373  0.70979  1.0000
  C  Sn48      1.0  0.60511  0.43834  0.74504  1.0000
  O  Te45      1.0  0.68131  0.46625  0.83152  1.0000
  O  Te46      1.0  0.56729  0.31650  0.78986  1.0000
  O  Te47      1.0  0.50336  0.32892  0.68819  1.0000
  O  Te48      1.0  0.61742  0.47868  0.72984  1.0000
  Mg  Mg23      1.0  0.50283  0.28004  0.72708  1.0000
  Mg  Mg24      1.0  0.68186  0.51515  0.79248  1.0000
