data_image0
_chemical_formula_structural       N2C12H8N2C6H4N2C6H4N2C12H8N2C12H8N2C6H4N2C12H8N2C6H4N2C12H8N2C6H4N2C12H8N2C12H8N2C6H4N2C6H4N2C12H8N2C6H4C4SnCSn2CSnTe4Mg2SnCSn2CSnTe4Mg2SnCSn2CSnTe4Mg2SnCSn2CSnTe4Mg2SnCSn2CSnTe4Mg2SnCSn2CSnTe4Mg2SnCSn2CSnTe4Mg2SnCSn2CSnTe4Mg2
_chemical_formula_sum              "N32 C164 H96 Sn32 Te32 Mg16"
_cell_length_a       22.5807
_cell_length_b       22.5706
_cell_length_c       8.58782
_cell_angle_alpha    90.0354
_cell_angle_beta     90.0841
_cell_angle_gamma    89.276

_symmetry_space_group_name_H-M    'P1'
_space_group_IT_number       1

loop_
  _space_group_symop_operation_xyz
  'x, y, z'

loop_
  _atom_site_type_symbol
  _atom_site_label
  _atom_site_symmetry_multiplicity
  _atom_site_fract_x
  _atom_site_fract_y
  _atom_site_fract_z
  _atom_site_occupancy
  N   N1        1.0  0.96736  0.15417  0.51529  1.0000
  N   N2        1.0  0.86900  0.19343  0.82648  1.0000
  C   C1        1.0  0.98719  0.04880  0.11306  1.0000
  C   C2        1.0  0.93502  0.04540  0.20133  1.0000
  C   C3        1.0  0.92537  0.08173  0.32942  1.0000
  C   C4        1.0  0.96880  0.12251  0.37562  1.0000
  C   C5        1.0  0.02031  0.12703  0.28450  1.0000
  C   C6        1.0  0.02921  0.09123  0.15448  1.0000
  C   C7        1.0  0.91888  0.16288  0.59251  1.0000
  C   C8        1.0  0.92103  0.18881  0.74793  1.0000
  C   C9        1.0  0.97503  0.20561  0.81525  1.0000
  C   C10       1.0  0.97541  0.22791  0.96482  1.0000
  C   C11       1.0  0.92209  0.23417  0.04901  1.0000
  C   C12       1.0  0.87028  0.21525  0.97121  1.0000
  H   H1        1.0  0.90308  0.01123  0.17415  1.0000
  H   H2        1.0  0.88632  0.07471  0.40064  1.0000
  H   H3        1.0  0.05427  0.15788  0.32089  1.0000
  H   H4        1.0  0.07026  0.09449  0.08913  1.0000
  H   H5        1.0  0.87461  0.15128  0.55005  1.0000
  H   H6        1.0  0.01539  0.20112  0.74720  1.0000
  H   H7        1.0  0.01705  0.24167  0.01594  1.0000
  H   H8        1.0  0.82751  0.21718  0.02996  1.0000
  N   N3        1.0  0.46607  0.65622  0.01209  1.0000
  N   N4        1.0  0.36867  0.70043  0.32083  1.0000
  C   C13       1.0  0.41774  0.66682  0.08833  1.0000
  C   C14       1.0  0.42063  0.69281  0.24355  1.0000
  C   C15       1.0  0.47529  0.70694  0.31150  1.0000
  C   C16       1.0  0.47646  0.72976  0.46050  1.0000
  C   C17       1.0  0.42330  0.73889  0.54378  1.0000
  C   C18       1.0  0.37076  0.72261  0.46514  1.0000
  H   H9        1.0  0.37313  0.65706  0.04499  1.0000
  H   H10       1.0  0.51552  0.70006  0.24424  1.0000
  H   H11       1.0  0.51868  0.74143  0.51192  1.0000
  H   H12       1.0  0.32796  0.72700  0.52287  1.0000
  N   N5        1.0  0.03818  0.84368  0.51845  1.0000
  N   N6        1.0  0.13585  0.80587  0.83346  1.0000
  C   C19       1.0  0.08652  0.83591  0.59725  1.0000
  C   C20       1.0  0.08420  0.80980  0.75245  1.0000
  C   C21       1.0  0.03012  0.79192  0.81653  1.0000
  C   C22       1.0  0.02925  0.76888  0.96521  1.0000
  C   C23       1.0  0.08215  0.76306  0.05172  1.0000
  C   C24       1.0  0.13402  0.78332  0.97740  1.0000
  H   H13       1.0  0.13072  0.84832  0.55651  1.0000
  H   H14       1.0  0.99017  0.79583  0.74631  1.0000
  H   H15       1.0  0.98761  0.75413  0.01365  1.0000
  H   H16       1.0  0.17624  0.78199  0.03920  1.0000
  N   N7        1.0  0.53468  0.34464  0.01813  1.0000
  N   N8        1.0  0.63374  0.30690  0.32997  1.0000
  C   C25       1.0  0.51218  0.44868  0.61358  1.0000
  C   C26       1.0  0.56442  0.45316  0.70174  1.0000
  C   C27       1.0  0.57485  0.41760  0.83099  1.0000
  C   C28       1.0  0.53233  0.37612  0.87827  1.0000
  C   C29       1.0  0.48068  0.37053  0.78767  1.0000
  C   C30       1.0  0.47089  0.40582  0.65696  1.0000
  C   C31       1.0  0.58337  0.33667  0.09528  1.0000
  C   C32       1.0  0.58172  0.31060  0.25066  1.0000
  C   C33       1.0  0.52802  0.29254  0.31674  1.0000
  C   C34       1.0  0.52794  0.26986  0.46580  1.0000
  C   C35       1.0  0.58127  0.26469  0.55099  1.0000
  C   C36       1.0  0.63274  0.28484  0.47450  1.0000
  H   H17       1.0  0.59582  0.48766  0.67352  1.0000
  H   H18       1.0  0.61380  0.42575  0.90206  1.0000
  H   H19       1.0  0.44741  0.33911  0.82497  1.0000
  H   H20       1.0  0.42964  0.40177  0.59255  1.0000
  H   H21       1.0  0.62743  0.34888  0.05299  1.0000
  H   H22       1.0  0.48779  0.29605  0.24755  1.0000
  H   H23       1.0  0.48655  0.25499  0.51571  1.0000
  H   H24       1.0  0.67544  0.28373  0.53415  1.0000
  N   N9        1.0  0.15649  0.03325  0.48384  1.0000
  N   N10       1.0  0.19726  0.13335  0.17961  1.0000
  C   C37       1.0  0.05195  0.01243  0.88576  1.0000
  C   C38       1.0  0.04632  0.06419  0.79583  1.0000
  C   C39       1.0  0.08193  0.07398  0.66723  1.0000
  C   C40       1.0  0.12460  0.03119  0.62270  1.0000
  C   C41       1.0  0.13134  0.98003  0.71503  1.0000
  C   C42       1.0  0.09601  0.97092  0.84532  1.0000
  C   C43       1.0  0.16438  0.08227  0.40918  1.0000
  C   C44       1.0  0.19114  0.08088  0.25478  1.0000
  C   C45       1.0  0.20778  0.02677  0.18584  1.0000
  C   C46       1.0  0.23112  0.02661  0.03760  1.0000
  C   C47       1.0  0.23874  0.08027  0.95629  1.0000
  C   C48       1.0  0.22039  0.13227  0.03613  1.0000
  H   H25       1.0  0.01101  0.09575  0.82231  1.0000
  H   H26       1.0  0.07304  0.11257  0.59471  1.0000
  H   H27       1.0  0.16383  0.94666  0.67992  1.0000
  H   H28       1.0  0.10106  0.93014  0.91166  1.0000
  H   H29       1.0  0.15197  0.12632  0.45372  1.0000
  H   H30       1.0  0.20234  0.98614  0.25183  1.0000
  H   H31       1.0  0.24446  0.98474  0.98536  1.0000
  H   H32       1.0  0.22375  0.17544  0.98011  1.0000
  N   N11       1.0  0.65280  0.53243  0.98303  1.0000
  N   N12       1.0  0.69639  0.63302  0.68272  1.0000
  C   C49       1.0  0.66220  0.58159  0.91036  1.0000
  C   C50       1.0  0.68862  0.58033  0.75554  1.0000
  C   C51       1.0  0.70341  0.52621  0.68380  1.0000
  C   C52       1.0  0.72645  0.52627  0.53522  1.0000
  C   C53       1.0  0.73596  0.58018  0.45658  1.0000
  C   C54       1.0  0.71940  0.63214  0.53914  1.0000
  H   H33       1.0  0.65138  0.62571  0.95723  1.0000
  H   H34       1.0  0.69688  0.48535  0.74797  1.0000
  H   H35       1.0  0.73798  0.48433  0.48055  1.0000
  H   H36       1.0  0.72420  0.67556  0.48542  1.0000
  N   N13       1.0  0.84587  0.96535  0.48464  1.0000
  N   N14       1.0  0.80060  0.86680  0.18142  1.0000
  C   C55       1.0  0.95096  0.98380  0.88730  1.0000
  C   C56       1.0  0.95517  0.93170  0.79826  1.0000
  C   C57       1.0  0.91933  0.92277  0.66915  1.0000
  C   C58       1.0  0.87789  0.96667  0.62354  1.0000
  C   C59       1.0  0.87245  0.01812  0.71532  1.0000
  C   C60       1.0  0.90791  0.02633  0.84597  1.0000
  C   C61       1.0  0.83593  0.91660  0.41049  1.0000
  C   C62       1.0  0.80845  0.91897  0.25684  1.0000
  C   C63       1.0  0.79281  0.97364  0.18923  1.0000
  C   C64       1.0  0.76888  0.97469  0.04146  1.0000
  C   C65       1.0  0.75984  0.92132  0.95976  1.0000
  C   C66       1.0  0.77701  0.86875  0.03850  1.0000
  H   H37       1.0  0.98964  0.89926  0.82555  1.0000
  H   H38       1.0  0.92695  0.88381  0.59703  1.0000
  H   H39       1.0  0.84080  0.05229  0.67987  1.0000
  H   H40       1.0  0.90376  0.06732  0.91179  1.0000
  H   H41       1.0  0.84693  0.87219  0.45506  1.0000
  H   H42       1.0  0.79941  0.01388  0.25618  1.0000
  H   H43       1.0  0.75607  0.01690  0.99003  1.0000
  H   H44       1.0  0.77197  0.82577  0.98237  1.0000
  N   N15       1.0  0.34330  0.46441  0.97930  1.0000
  N   N16       1.0  0.29814  0.36441  0.67884  1.0000
  C   C67       1.0  0.33274  0.41532  0.90723  1.0000
  C   C68       1.0  0.30614  0.41698  0.75236  1.0000
  C   C69       1.0  0.29142  0.47128  0.68145  1.0000
  C   C70       1.0  0.26850  0.47153  0.53249  1.0000
  C   C71       1.0  0.25945  0.41774  0.45249  1.0000
  C   C72       1.0  0.27553  0.36557  0.53470  1.0000
  H   H45       1.0  0.34269  0.37108  0.95440  1.0000
  H   H46       1.0  0.29793  0.51197  0.74661  1.0000
  H   H47       1.0  0.25677  0.51357  0.47860  1.0000
  H   H48       1.0  0.27083  0.32229  0.47985  1.0000
  N   N17       1.0  0.53664  0.15566  0.23358  1.0000
  N   N18       1.0  0.63623  0.19983  0.93224  1.0000
  C   C73       1.0  0.51519  0.05148  0.63536  1.0000
  C   C74       1.0  0.56800  0.04711  0.54963  1.0000
  C   C75       1.0  0.57793  0.08273  0.42091  1.0000
  C   C76       1.0  0.53430  0.12393  0.37247  1.0000
  C   C77       1.0  0.48207  0.12946  0.46078  1.0000
  C   C78       1.0  0.47285  0.09430  0.59126  1.0000
  C   C79       1.0  0.58580  0.16524  0.16131  1.0000
  C   C80       1.0  0.58397  0.19186  0.00676  1.0000
  C   C81       1.0  0.52939  0.20653  0.93737  1.0000
  C   C82       1.0  0.52851  0.22987  0.78917  1.0000
  C   C83       1.0  0.58191  0.23923  0.70833  1.0000
  C   C84       1.0  0.63443  0.22277  0.78854  1.0000
  H   H49       1.0  0.60042  0.01303  0.58012  1.0000
  H   H50       1.0  0.61746  0.07516  0.35118  1.0000
  H   H51       1.0  0.44820  0.16091  0.42227  1.0000
  H   H52       1.0  0.43145  0.09849  0.65508  1.0000
  H   H53       1.0  0.62997  0.15443  0.20777  1.0000
  H   H54       1.0  0.48901  0.19980  0.00327  1.0000
  H   H55       1.0  0.48627  0.24175  0.73670  1.0000
  H   H56       1.0  0.67748  0.22773  0.73295  1.0000
  N   N19       1.0  0.03511  0.65472  0.73394  1.0000
  N   N20       1.0  0.13544  0.69515  0.43074  1.0000
  C   C85       1.0  0.08439  0.66239  0.66063  1.0000
  C   C86       1.0  0.08313  0.68941  0.50653  1.0000
  C   C87       1.0  0.02892  0.70627  0.43834  1.0000
  C   C88       1.0  0.02850  0.72961  0.29010  1.0000
  C   C89       1.0  0.08206  0.73713  0.20854  1.0000
  C   C90       1.0  0.13414  0.71833  0.28730  1.0000
  H   H57       1.0  0.12824  0.64933  0.70543  1.0000
  H   H58       1.0  0.98850  0.70108  0.50517  1.0000
  H   H59       1.0  0.98664  0.74320  0.23820  1.0000
  H   H60       1.0  0.17710  0.72119  0.23013  1.0000
  N   N21       1.0  0.46751  0.84519  0.23393  1.0000
  N   N22       1.0  0.36958  0.80445  0.92451  1.0000
  C   C91       1.0  0.48616  0.95066  0.63549  1.0000
  C   C92       1.0  0.43458  0.95585  0.54458  1.0000
  C   C93       1.0  0.42530  0.91973  0.41625  1.0000
  C   C94       1.0  0.46854  0.87728  0.37286  1.0000
  C   C95       1.0  0.51933  0.87085  0.46678  1.0000
  C   C96       1.0  0.52784  0.90650  0.59693  1.0000
  C   C97       1.0  0.41921  0.83726  0.15600  1.0000
  C   C98       1.0  0.42171  0.81041  0.00166  1.0000
  C   C99       1.0  0.47610  0.79390  0.93413  1.0000
  C   C100      1.0  0.47693  0.77116  0.78499  1.0000
  C   C101      1.0  0.42357  0.76393  0.70169  1.0000
  C   C102      1.0  0.37127  0.78184  0.78060  1.0000
  H   H61       1.0  0.40287  0.99120  0.56993  1.0000
  H   H62       1.0  0.38672  0.92808  0.34319  1.0000
  H   H63       1.0  0.55295  0.83843  0.43277  1.0000
  H   H64       1.0  0.56839  0.90158  0.66438  1.0000
  H   H65       1.0  0.37485  0.85012  0.19712  1.0000
  H   H66       1.0  0.51644  0.79900  0.00176  1.0000
  H   H67       1.0  0.51906  0.75817  0.73366  1.0000
  H   H68       1.0  0.32832  0.77840  0.72339  1.0000
  N   N23       1.0  0.96262  0.34408  0.73499  1.0000
  N   N24       1.0  0.86594  0.30095  0.42545  1.0000
  C   C103      1.0  0.98143  0.44972  0.13652  1.0000
  C   C104      1.0  0.92989  0.45505  0.04537  1.0000
  C   C105      1.0  0.92061  0.41909  0.91659  1.0000
  C   C106      1.0  0.96368  0.37641  0.87340  1.0000
  C   C107      1.0  0.01449  0.36996  0.96722  1.0000
  C   C108      1.0  0.02300  0.40544  0.09762  1.0000
  C   C109      1.0  0.91437  0.33495  0.65789  1.0000
  C   C110      1.0  0.91762  0.30761  0.50415  1.0000
  C   C111      1.0  0.97253  0.29150  0.43903  1.0000
  C   C112      1.0  0.97427  0.26778  0.29100  1.0000
  C   C113      1.0  0.92140  0.25968  0.20630  1.0000
  C   C114      1.0  0.86857  0.27783  0.28213  1.0000
  H   H69       1.0  0.89820  0.49039  0.07101  1.0000
  H   H70       1.0  0.88222  0.42761  0.84293  1.0000
  H   H71       1.0  0.04813  0.33764  0.93270  1.0000
  H   H72       1.0  0.06356  0.40040  0.16499  1.0000
  H   H73       1.0  0.86977  0.34697  0.69900  1.0000
  H   H74       1.0  0.01239  0.29759  0.50797  1.0000
  H   H75       1.0  0.01665  0.25453  0.24163  1.0000
  H   H76       1.0  0.82612  0.27426  0.22241  1.0000
  N   N25       1.0  0.34626  0.03647  0.26690  1.0000
  N   N26       1.0  0.30701  0.13420  0.58034  1.0000
  C   C115      1.0  0.33776  0.08487  0.34495  1.0000
  C   C116      1.0  0.31151  0.08247  0.49999  1.0000
  C   C117      1.0  0.29401  0.02831  0.56468  1.0000
  C   C118      1.0  0.27069  0.02752  0.71304  1.0000
  C   C119      1.0  0.26455  0.08049  0.79921  1.0000
  C   C120      1.0  0.28457  0.13244  0.72439  1.0000
  H   H77       1.0  0.34947  0.12917  0.30306  1.0000
  H   H78       1.0  0.29835  0.98827  0.49504  1.0000
  H   H79       1.0  0.25615  0.98578  0.76166  1.0000
  H   H80       1.0  0.28307  0.17490  0.78509  1.0000
  N   N27       1.0  0.84170  0.53894  0.76489  1.0000
  N   N28       1.0  0.80467  0.63537  0.08272  1.0000
  C   C121      1.0  0.83451  0.58703  0.84501  1.0000
  C   C122      1.0  0.80826  0.58413  0.99995  1.0000
  C   C123      1.0  0.78997  0.52984  0.06222  1.0000
  C   C124      1.0  0.76710  0.52831  0.21102  1.0000
  C   C125      1.0  0.76179  0.58080  0.29958  1.0000
  C   C126      1.0  0.78231  0.63297  0.22674  1.0000
  H   H81       1.0  0.84740  0.63132  0.80567  1.0000
  H   H82       1.0  0.79358  0.49025  0.99057  1.0000
  H   H83       1.0  0.75235  0.48637  0.25791  1.0000
  H   H84       1.0  0.78108  0.67511  0.28894  1.0000
  N   N29       1.0  0.65433  0.96568  0.26865  1.0000
  N   N30       1.0  0.69123  0.86823  0.58368  1.0000
  C   C127      1.0  0.55071  0.98616  0.86333  1.0000
  C   C128      1.0  0.54655  0.93394  0.95152  1.0000
  C   C129      1.0  0.58208  0.92391  0.08108  1.0000
  C   C130      1.0  0.62279  0.96716  0.12878  1.0000
  C   C131      1.0  0.62820  0.01861  0.03770  1.0000
  C   C132      1.0  0.59325  0.02787  0.90624  1.0000
  C   C133      1.0  0.66160  0.91745  0.34797  1.0000
  C   C134      1.0  0.68799  0.91984  0.50275  1.0000
  C   C135      1.0  0.70666  0.97376  0.56690  1.0000
  C   C136      1.0  0.72950  0.97452  0.71591  1.0000
  C   C137      1.0  0.73428  0.92159  0.80256  1.0000
  C   C138      1.0  0.71367  0.86985  0.72775  1.0000
  H   H85       1.0  0.51241  0.90216  0.92294  1.0000
  H   H86       1.0  0.57455  0.88466  0.15140  1.0000
  H   H87       1.0  0.65925  0.05212  0.07577  1.0000
  H   H88       1.0  0.59713  0.06899  0.84123  1.0000
  H   H89       1.0  0.64823  0.87333  0.30831  1.0000
  H   H90       1.0  0.70315  0.01369  0.49672  1.0000
  H   H91       1.0  0.74457  0.01610  0.76473  1.0000
  H   H92       1.0  0.71455  0.82748  0.78867  1.0000
  N   N31       1.0  0.15235  0.46191  0.76390  1.0000
  N   N32       1.0  0.19166  0.36345  0.07561  1.0000
  C   C139      1.0  0.15971  0.41326  0.84147  1.0000
  C   C140      1.0  0.18702  0.41516  0.99543  1.0000
  C   C141      1.0  0.20514  0.46925  0.05946  1.0000
  C   C142      1.0  0.22860  0.47020  0.20775  1.0000
  C   C143      1.0  0.23436  0.41735  0.29448  1.0000
  C   C144      1.0  0.21446  0.36532  0.21947  1.0000
  H   H93       1.0  0.14619  0.36938  0.80041  1.0000
  H   H94       1.0  0.20090  0.50913  0.98929  1.0000
  H   H95       1.0  0.24339  0.51196  0.25582  1.0000
  H   H96       1.0  0.21631  0.32288  0.28002  1.0000
  C   C145      1.0  0.00179  0.99801  0.99988  1.0000
  C   C146      1.0  0.49698  0.49882  0.49832  1.0000
  C   C147      1.0  0.50045  0.00122  0.74875  1.0000
  C   C148      1.0  0.99634  0.50044  0.24911  1.0000
  C  Sn1       1.0  0.45672  0.43317  0.24364  1.0000
  C   C149      1.0  0.45648  0.48169  0.34480  1.0000
  C  Sn2       1.0  0.40935  0.52238  0.34348  1.0000
  C  Sn3       1.0  0.36143  0.51438  0.23892  1.0000
  C   C150      1.0  0.36167  0.46587  0.13786  1.0000
  C  Sn4       1.0  0.40879  0.42517  0.13908  1.0000
  O  Te1       1.0  0.50430  0.39305  0.24698  1.0000
  O  Te2       1.0  0.41012  0.57056  0.44567  1.0000
  O  Te3       1.0  0.31383  0.55455  0.23566  1.0000
  O  Te4       1.0  0.40804  0.37701  0.03699  1.0000
  Mg  Mg1       1.0  0.33513  0.61311  0.39731  1.0000
  Mg  Mg2       1.0  0.48298  0.33441  0.08531  1.0000
  C  Sn5       1.0  0.95704  0.56634  0.50687  1.0000
  C   C151      1.0  0.95618  0.51844  0.40373  1.0000
  C  Sn6       1.0  0.90786  0.48043  0.40039  1.0000
  C  Sn7       1.0  0.85936  0.49052  0.50218  1.0000
  C   C152      1.0  0.86023  0.53840  0.60522  1.0000
  C  Sn8       1.0  0.90855  0.57644  0.60866  1.0000
  O  Te5       1.0  0.00582  0.60378  0.50820  1.0000
  O  Te6       1.0  0.90801  0.43282  0.29630  1.0000
  O  Te7       1.0  0.81057  0.45304  0.50077  1.0000
  O  Te8       1.0  0.90840  0.62402  0.71265  1.0000
  Mg  Mg3       1.0  0.83141  0.39423  0.33813  1.0000
  Mg  Mg4       1.0  0.98496  0.66265  0.67086  1.0000
  C  Sn9       1.0  0.51546  0.63459  0.72438  1.0000
  C   C153      1.0  0.46833  0.63548  0.82970  1.0000
  C  Sn10      1.0  0.42829  0.58883  0.83365  1.0000
  C  Sn11      1.0  0.43552  0.54026  0.73025  1.0000
  C   C154      1.0  0.48263  0.53938  0.62503  1.0000
  C  Sn12      1.0  0.52269  0.58602  0.62098  1.0000
  O  Te9       1.0  0.55496  0.68170  0.72247  1.0000
  O  Te10      1.0  0.38151  0.59072  0.93993  1.0000
  O  Te11      1.0  0.39597  0.49314  0.73223  1.0000
  O  Te12      1.0  0.56945  0.58414  0.51480  1.0000
  Mg  Mg5       1.0  0.33933  0.51600  0.89806  1.0000
  Mg  Mg6       1.0  0.61167  0.65882  0.55662  1.0000
  C  Sn13      1.0  0.07801  0.56153  0.04465  1.0000
  C   C155      1.0  0.02890  0.56168  0.14351  1.0000
  C  Sn14      1.0  0.97631  0.59028  0.09923  1.0000
  C  Sn15      1.0  0.97326  0.61955  0.95304  1.0000
  C   C156      1.0  0.02234  0.61939  0.85426  1.0000
  C  Sn16      1.0  0.07496  0.59080  0.89846  1.0000
  O  Te13      1.0  0.13013  0.53265  0.09130  1.0000
  O  Te14      1.0  0.92781  0.58984  0.20007  1.0000
  O  Te15      1.0  0.92108  0.64844  0.90645  1.0000
  O  Te16      1.0  0.12343  0.59122  0.79771  1.0000
  Mg  Mg7       1.0  0.86652  0.63531  0.08422  1.0000
  Mg  Mg8       1.0  0.18473  0.54575  0.91339  1.0000
  C  Sn17      1.0  0.46019  0.06550  0.00727  1.0000
  C   C157      1.0  0.45994  0.01837  0.90240  1.0000
  C  Sn18      1.0  0.39944  0.97979  0.89926  1.0000
  C  Sn19      1.0  0.35079  0.98851  0.00303  1.0000
  C   C158      1.0  0.36423  0.03585  0.10780  1.0000
  C  Sn20      1.0  0.41209  0.07445  0.11104  1.0000
  O  Te17      1.0  0.50850  0.10351  0.00837  1.0000
  O  Te18      1.0  0.39965  0.93275  0.79341  1.0000
  O  Te19      1.0  0.30245  0.95044  0.00185  1.0000
  O  Te20      1.0  0.41189  0.12147  0.21679  1.0000
  Mg  Mg9       1.0  0.32374  0.89300  0.83636  1.0000
  Mg  Mg10      1.0  0.48776  0.16126  0.17389  1.0000
  C  Sn21      1.0  0.07987  0.41235  0.52790  1.0000
  C   C159      1.0  0.12388  0.44855  0.58944  1.0000
  C  Sn22      1.0  0.12761  0.50779  0.54390  1.0000
  C  Sn23      1.0  0.08648  0.53135  0.43463  1.0000
  C   C160      1.0  0.04250  0.49516  0.37316  1.0000
  C  Sn24      1.0  0.03873  0.43591  0.41862  1.0000
  O  Te21      1.0  0.07696  0.35326  0.57510  1.0000
  O  Te22      1.0  0.17201  0.54311  0.60700  1.0000
  O  Te23      1.0  0.08942  0.59049  0.38745  1.0000
  O  Te24      1.0  0.99436  0.40060  0.35561  1.0000
  Mg  Mg11      1.0  0.15778  0.62090  0.50635  1.0000
  Mg  Mg12      1.0  0.00853  0.32282  0.45623  1.0000
  C  Sn25      1.0  0.08324  0.93350  0.20351  1.0000
  C   C161      1.0  0.03388  0.93532  0.10520  1.0000
  C  Sn26      1.0  0.98096  0.90896  0.15024  1.0000
  C  Sn27      1.0  0.97728  0.88020  0.29665  1.0000
  C   C162      1.0  0.02662  0.87840  0.39488  1.0000
  C  Sn28      1.0  0.07957  0.90475  0.34992  1.0000
  O  Te25      1.0  0.13569  0.96016  0.15610  1.0000
  O  Te26      1.0  0.93221  0.91133  0.04994  1.0000
  O  Te27      1.0  0.92477  0.85353  0.34400  1.0000
  O  Te28      1.0  0.12829  0.90239  0.45014  1.0000
  Mg  Mg13      1.0  0.87051  0.86854  0.16676  1.0000
  Mg  Mg14      1.0  0.19000  0.94520  0.33349  1.0000
  C  Sn29      1.0  0.61208  0.47644  0.34430  1.0000
  C   C163      1.0  0.56662  0.51299  0.40124  1.0000
  C  Sn30      1.0  0.54294  0.55841  0.30893  1.0000
  C  Sn31      1.0  0.56513  0.56746  0.15649  1.0000
  C   C164      1.0  0.61055  0.53092  0.09961  1.0000
  C  Sn32      1.0  0.63427  0.48550  0.19186  1.0000
  O  Te29      1.0  0.63510  0.43130  0.43862  1.0000
  O  Te30      1.0  0.49752  0.59439  0.36843  1.0000
  O  Te31      1.0  0.54207  0.61265  0.06218  1.0000
  O  Te32      1.0  0.67965  0.44952  0.13243  1.0000
  Mg  Mg15      1.0  0.48058  0.64997  0.19527  1.0000
  Mg  Mg16      1.0  0.69660  0.39391  0.30544  1.0000
