data_image0
_chemical_formula_structural       N2C6H4N2C6H4N2C6H4N2C6H4N2C6H4N2C6H4N2C6H4N2C6H4N2C6H4N2C6H4N2C6H4N2C6H4N2C6H4N2C6H4N2C6H4N2C6H4C6Sn2C2HTe2HMgC2Sn2C2HTe2HMgC2Sn2C2HTe2HMgC2Sn2C2HTe2HMgC2Sn2C2HTe2HMgC2Sn2C2HTe2HMgC2Sn2C2HTe2HMgC2Sn2C2HTe2HMgC2Sn2C2HTe2HMgC2Sn2C2HTe2HMgC2Sn2C2HTe2HMgC2Sn2C2HTe2HMgC2Sn2C2HTe2HMgC2Sn2C2HTe2HMgC2Sn2C2HTe2HMgC2Sn2C2HTe2HMg
_chemical_formula_sum              "N32 C164 H96 Sn32 Te32 Mg16"
_cell_length_a       22.5807
_cell_length_b       22.5706
_cell_length_c       8.58782
_cell_angle_alpha    90.0354
_cell_angle_beta     90.0841
_cell_angle_gamma    89.276

_symmetry_space_group_name_H-M    'P1'
_space_group_IT_number       1

loop_
  _space_group_symop_operation_xyz
  'x, y, z'

loop_
  _atom_site_type_symbol
  _atom_site_label
  _atom_site_symmetry_multiplicity
  _atom_site_fract_x
  _atom_site_fract_y
  _atom_site_fract_z
  _atom_site_occupancy
  N   N1        1.0  0.96736  0.15417  0.51529  1.0000
  N   N2        1.0  0.86900  0.19343  0.82648  1.0000
  C   C1        1.0  0.91888  0.16288  0.59251  1.0000
  C   C2        1.0  0.92103  0.18881  0.74793  1.0000
  C   C3        1.0  0.97503  0.20561  0.81525  1.0000
  C   C4        1.0  0.97541  0.22791  0.96482  1.0000
  C   C5        1.0  0.92209  0.23417  0.04901  1.0000
  C   C6        1.0  0.87028  0.21525  0.97121  1.0000
  H   H1        1.0  0.87461  0.15128  0.55005  1.0000
  H   H2        1.0  0.01539  0.20112  0.74720  1.0000
  H   H3        1.0  0.01705  0.24167  0.01594  1.0000
  H   H4        1.0  0.82751  0.21718  0.02996  1.0000
  N   N3        1.0  0.46607  0.65622  0.01209  1.0000
  N   N4        1.0  0.36867  0.70043  0.32083  1.0000
  C   C7        1.0  0.41774  0.66682  0.08833  1.0000
  C   C8        1.0  0.42063  0.69281  0.24355  1.0000
  C   C9        1.0  0.47529  0.70694  0.31150  1.0000
  C   C10       1.0  0.47646  0.72976  0.46050  1.0000
  C   C11       1.0  0.42330  0.73889  0.54378  1.0000
  C   C12       1.0  0.37076  0.72261  0.46514  1.0000
  H   H5        1.0  0.37313  0.65706  0.04499  1.0000
  H   H6        1.0  0.51552  0.70006  0.24424  1.0000
  H   H7        1.0  0.51868  0.74143  0.51192  1.0000
  H   H8        1.0  0.32796  0.72700  0.52287  1.0000
  N   N5        1.0  0.03818  0.84368  0.51845  1.0000
  N   N6        1.0  0.13585  0.80587  0.83346  1.0000
  C   C13       1.0  0.08652  0.83591  0.59725  1.0000
  C   C14       1.0  0.08420  0.80980  0.75245  1.0000
  C   C15       1.0  0.03012  0.79192  0.81653  1.0000
  C   C16       1.0  0.02925  0.76888  0.96521  1.0000
  C   C17       1.0  0.08215  0.76306  0.05172  1.0000
  C   C18       1.0  0.13402  0.78332  0.97740  1.0000
  H   H9        1.0  0.13072  0.84832  0.55651  1.0000
  H   H10       1.0  0.99017  0.79583  0.74631  1.0000
  H   H11       1.0  0.98761  0.75413  0.01365  1.0000
  H   H12       1.0  0.17624  0.78199  0.03920  1.0000
  N   N7        1.0  0.53468  0.34464  0.01813  1.0000
  N   N8        1.0  0.63374  0.30690  0.32997  1.0000
  C   C19       1.0  0.58337  0.33667  0.09528  1.0000
  C   C20       1.0  0.58172  0.31060  0.25066  1.0000
  C   C21       1.0  0.52802  0.29254  0.31674  1.0000
  C   C22       1.0  0.52794  0.26986  0.46580  1.0000
  C   C23       1.0  0.58127  0.26469  0.55099  1.0000
  C   C24       1.0  0.63274  0.28484  0.47450  1.0000
  H   H13       1.0  0.62743  0.34888  0.05299  1.0000
  H   H14       1.0  0.48779  0.29605  0.24755  1.0000
  H   H15       1.0  0.48655  0.25499  0.51571  1.0000
  H   H16       1.0  0.67544  0.28373  0.53415  1.0000
  N   N9        1.0  0.15649  0.03325  0.48384  1.0000
  N   N10       1.0  0.19726  0.13335  0.17961  1.0000
  C   C25       1.0  0.16438  0.08227  0.40918  1.0000
  C   C26       1.0  0.19114  0.08088  0.25478  1.0000
  C   C27       1.0  0.20778  0.02677  0.18584  1.0000
  C   C28       1.0  0.23112  0.02661  0.03760  1.0000
  C   C29       1.0  0.23874  0.08027  0.95629  1.0000
  C   C30       1.0  0.22039  0.13227  0.03613  1.0000
  H   H17       1.0  0.15197  0.12632  0.45372  1.0000
  H   H18       1.0  0.20234  0.98614  0.25183  1.0000
  H   H19       1.0  0.24446  0.98474  0.98536  1.0000
  H   H20       1.0  0.22375  0.17544  0.98011  1.0000
  N   N11       1.0  0.65280  0.53243  0.98303  1.0000
  N   N12       1.0  0.69639  0.63302  0.68272  1.0000
  C   C31       1.0  0.66220  0.58159  0.91036  1.0000
  C   C32       1.0  0.68862  0.58033  0.75554  1.0000
  C   C33       1.0  0.70341  0.52621  0.68380  1.0000
  C   C34       1.0  0.72645  0.52627  0.53522  1.0000
  C   C35       1.0  0.73596  0.58018  0.45658  1.0000
  C   C36       1.0  0.71940  0.63214  0.53914  1.0000
  H   H21       1.0  0.65138  0.62571  0.95723  1.0000
  H   H22       1.0  0.69688  0.48535  0.74797  1.0000
  H   H23       1.0  0.73798  0.48433  0.48055  1.0000
  H   H24       1.0  0.72420  0.67556  0.48542  1.0000
  N   N13       1.0  0.84587  0.96535  0.48464  1.0000
  N   N14       1.0  0.80060  0.86680  0.18142  1.0000
  C   C37       1.0  0.83593  0.91660  0.41049  1.0000
  C   C38       1.0  0.80845  0.91897  0.25684  1.0000
  C   C39       1.0  0.79281  0.97364  0.18923  1.0000
  C   C40       1.0  0.76888  0.97469  0.04146  1.0000
  C   C41       1.0  0.75984  0.92132  0.95976  1.0000
  C   C42       1.0  0.77701  0.86875  0.03850  1.0000
  H   H25       1.0  0.84693  0.87219  0.45506  1.0000
  H   H26       1.0  0.79941  0.01388  0.25618  1.0000
  H   H27       1.0  0.75607  0.01690  0.99003  1.0000
  H   H28       1.0  0.77197  0.82577  0.98237  1.0000
  N   N15       1.0  0.34330  0.46441  0.97930  1.0000
  N   N16       1.0  0.29814  0.36441  0.67884  1.0000
  C   C43       1.0  0.33274  0.41532  0.90723  1.0000
  C   C44       1.0  0.30614  0.41698  0.75236  1.0000
  C   C45       1.0  0.29142  0.47128  0.68145  1.0000
  C   C46       1.0  0.26850  0.47153  0.53249  1.0000
  C   C47       1.0  0.25945  0.41774  0.45249  1.0000
  C   C48       1.0  0.27553  0.36557  0.53470  1.0000
  H   H29       1.0  0.34269  0.37108  0.95440  1.0000
  H   H30       1.0  0.29793  0.51197  0.74661  1.0000
  H   H31       1.0  0.25677  0.51357  0.47860  1.0000
  H   H32       1.0  0.27083  0.32229  0.47985  1.0000
  N   N17       1.0  0.53664  0.15566  0.23358  1.0000
  N   N18       1.0  0.63623  0.19983  0.93224  1.0000
  C   C49       1.0  0.58580  0.16524  0.16131  1.0000
  C   C50       1.0  0.58397  0.19186  0.00676  1.0000
  C   C51       1.0  0.52939  0.20653  0.93737  1.0000
  C   C52       1.0  0.52851  0.22987  0.78917  1.0000
  C   C53       1.0  0.58191  0.23923  0.70833  1.0000
  C   C54       1.0  0.63443  0.22277  0.78854  1.0000
  H   H33       1.0  0.62997  0.15443  0.20777  1.0000
  H   H34       1.0  0.48901  0.19980  0.00327  1.0000
  H   H35       1.0  0.48627  0.24175  0.73670  1.0000
  H   H36       1.0  0.67748  0.22773  0.73295  1.0000
  N   N19       1.0  0.03511  0.65472  0.73394  1.0000
  N   N20       1.0  0.13544  0.69515  0.43074  1.0000
  C   C55       1.0  0.08439  0.66239  0.66063  1.0000
  C   C56       1.0  0.08313  0.68941  0.50653  1.0000
  C   C57       1.0  0.02892  0.70627  0.43834  1.0000
  C   C58       1.0  0.02850  0.72961  0.29010  1.0000
  C   C59       1.0  0.08206  0.73713  0.20854  1.0000
  C   C60       1.0  0.13414  0.71833  0.28730  1.0000
  H   H37       1.0  0.12824  0.64933  0.70543  1.0000
  H   H38       1.0  0.98850  0.70108  0.50517  1.0000
  H   H39       1.0  0.98664  0.74320  0.23820  1.0000
  H   H40       1.0  0.17710  0.72119  0.23013  1.0000
  N   N21       1.0  0.46751  0.84519  0.23393  1.0000
  N   N22       1.0  0.36958  0.80445  0.92451  1.0000
  C   C61       1.0  0.41921  0.83726  0.15600  1.0000
  C   C62       1.0  0.42171  0.81041  0.00166  1.0000
  C   C63       1.0  0.47610  0.79390  0.93413  1.0000
  C   C64       1.0  0.47693  0.77116  0.78499  1.0000
  C   C65       1.0  0.42357  0.76393  0.70169  1.0000
  C   C66       1.0  0.37127  0.78184  0.78060  1.0000
  H   H41       1.0  0.37485  0.85012  0.19712  1.0000
  H   H42       1.0  0.51644  0.79900  0.00176  1.0000
  H   H43       1.0  0.51906  0.75817  0.73366  1.0000
  H   H44       1.0  0.32832  0.77840  0.72339  1.0000
  N   N23       1.0  0.96262  0.34408  0.73499  1.0000
  N   N24       1.0  0.86594  0.30095  0.42545  1.0000
  C   C67       1.0  0.91437  0.33495  0.65789  1.0000
  C   C68       1.0  0.91762  0.30761  0.50415  1.0000
  C   C69       1.0  0.97253  0.29150  0.43903  1.0000
  C   C70       1.0  0.97427  0.26778  0.29100  1.0000
  C   C71       1.0  0.92140  0.25968  0.20630  1.0000
  C   C72       1.0  0.86857  0.27783  0.28213  1.0000
  H   H45       1.0  0.86977  0.34697  0.69900  1.0000
  H   H46       1.0  0.01239  0.29759  0.50797  1.0000
  H   H47       1.0  0.01665  0.25453  0.24163  1.0000
  H   H48       1.0  0.82612  0.27426  0.22241  1.0000
  N   N25       1.0  0.34626  0.03647  0.26690  1.0000
  N   N26       1.0  0.30701  0.13420  0.58034  1.0000
  C   C73       1.0  0.33776  0.08487  0.34495  1.0000
  C   C74       1.0  0.31151  0.08247  0.49999  1.0000
  C   C75       1.0  0.29401  0.02831  0.56468  1.0000
  C   C76       1.0  0.27069  0.02752  0.71304  1.0000
  C   C77       1.0  0.26455  0.08049  0.79921  1.0000
  C   C78       1.0  0.28457  0.13244  0.72439  1.0000
  H   H49       1.0  0.34947  0.12917  0.30306  1.0000
  H   H50       1.0  0.29835  0.98827  0.49504  1.0000
  H   H51       1.0  0.25615  0.98578  0.76166  1.0000
  H   H52       1.0  0.28307  0.17490  0.78509  1.0000
  N   N27       1.0  0.84170  0.53894  0.76489  1.0000
  N   N28       1.0  0.80467  0.63537  0.08272  1.0000
  C   C79       1.0  0.83451  0.58703  0.84501  1.0000
  C   C80       1.0  0.80826  0.58413  0.99995  1.0000
  C   C81       1.0  0.78997  0.52984  0.06222  1.0000
  C   C82       1.0  0.76710  0.52831  0.21102  1.0000
  C   C83       1.0  0.76179  0.58080  0.29958  1.0000
  C   C84       1.0  0.78231  0.63297  0.22674  1.0000
  H   H53       1.0  0.84740  0.63132  0.80567  1.0000
  H   H54       1.0  0.79358  0.49025  0.99057  1.0000
  H   H55       1.0  0.75235  0.48637  0.25791  1.0000
  H   H56       1.0  0.78108  0.67511  0.28894  1.0000
  N   N29       1.0  0.65433  0.96568  0.26865  1.0000
  N   N30       1.0  0.69123  0.86823  0.58368  1.0000
  C   C85       1.0  0.66160  0.91745  0.34797  1.0000
  C   C86       1.0  0.68799  0.91984  0.50275  1.0000
  C   C87       1.0  0.70666  0.97376  0.56690  1.0000
  C   C88       1.0  0.72950  0.97452  0.71591  1.0000
  C   C89       1.0  0.73428  0.92159  0.80256  1.0000
  C   C90       1.0  0.71367  0.86985  0.72775  1.0000
  H   H57       1.0  0.64823  0.87333  0.30831  1.0000
  H   H58       1.0  0.70315  0.01369  0.49672  1.0000
  H   H59       1.0  0.74457  0.01610  0.76473  1.0000
  H   H60       1.0  0.71455  0.82748  0.78867  1.0000
  N   N31       1.0  0.15235  0.46191  0.76390  1.0000
  N   N32       1.0  0.19166  0.36345  0.07561  1.0000
  C   C91       1.0  0.15971  0.41326  0.84147  1.0000
  C   C92       1.0  0.18702  0.41516  0.99543  1.0000
  C   C93       1.0  0.20514  0.46925  0.05946  1.0000
  C   C94       1.0  0.22860  0.47020  0.20775  1.0000
  C   C95       1.0  0.23436  0.41735  0.29448  1.0000
  C   C96       1.0  0.21446  0.36532  0.21947  1.0000
  H   H61       1.0  0.14619  0.36938  0.80041  1.0000
  H   H62       1.0  0.20090  0.50913  0.98929  1.0000
  H   H63       1.0  0.24339  0.51196  0.25582  1.0000
  H   H64       1.0  0.21631  0.32288  0.28002  1.0000
  C   C97       1.0  0.00179  0.99801  0.99988  1.0000
  C   C98       1.0  0.49698  0.49882  0.49832  1.0000
  C   C99       1.0  0.50045  0.00122  0.74875  1.0000
  C   C100      1.0  0.99634  0.50044  0.24911  1.0000
  C   C101      1.0  0.03403  0.10422  0.17827  1.0000
  C   C102      1.0  0.99980  0.05763  0.12232  1.0000
  C  Sn1       1.0  0.94584  0.04440  0.19282  1.0000
  C  Sn2       1.0  0.92588  0.07855  0.32168  1.0000
  C   C103      1.0  0.96043  0.12509  0.37671  1.0000
  C   C104      1.0  0.01437  0.13793  0.30532  1.0000
  H   H65       1.0  0.07575  0.11417  0.12300  1.0000
  O  Te1       1.0  0.89957  0.99769  0.13548  1.0000
  O  Te2       1.0  0.87211  0.06631  0.39428  1.0000
  H   H66       1.0  0.04084  0.17403  0.34861  1.0000
  Mg  Mg1       1.0  0.82941  0.99818  0.27366  1.0000
  C   C105      1.0  0.42204  0.55178  0.73447  1.0000
  C   C106      1.0  0.46760  0.55149  0.62450  1.0000
  C  Sn3       1.0  0.51613  0.58863  0.64305  1.0000
  C  Sn4       1.0  0.51899  0.62673  0.77427  1.0000
  C   C107      1.0  0.47321  0.62666  0.88368  1.0000
  C   C108      1.0  0.42484  0.58932  0.86396  1.0000
  H   H67       1.0  0.38463  0.52287  0.71926  1.0000
  O  Te3       1.0  0.56126  0.58780  0.53204  1.0000
  O  Te4       1.0  0.56700  0.66429  0.79569  1.0000
  H   H68       1.0  0.38959  0.58953  0.94917  1.0000
  Mg  Mg2       1.0  0.61752  0.64712  0.61249  1.0000
  C   C109      1.0  0.97439  0.87505  0.25628  1.0000
  C   C110      1.0  0.02423  0.87071  0.35244  1.0000
  C  Sn5       1.0  0.07202  0.90850  0.33040  1.0000
  C  Sn6       1.0  0.06974  0.95140  0.20976  1.0000
  C   C111      1.0  0.01965  0.95541  0.11425  1.0000
  C   C112      1.0  0.97209  0.91737  0.13731  1.0000
  H   H69       1.0  0.93757  0.84564  0.27416  1.0000
  O  Te5       1.0  0.12149  0.90355  0.42749  1.0000
  O  Te6       1.0  0.11687  0.98974  0.18520  1.0000
  H   H70       1.0  0.93349  0.92076  0.06290  1.0000
  Mg  Mg3       1.0  0.17458  0.96578  0.34790  1.0000
  C   C113      1.0  0.47021  0.37578  0.75662  1.0000
  C   C114      1.0  0.52012  0.37181  0.85263  1.0000
  C  Sn7       1.0  0.56757  0.41004  0.83063  1.0000
  C  Sn8       1.0  0.56486  0.45300  0.71020  1.0000
  C   C115      1.0  0.51471  0.45664  0.61484  1.0000
  C   C116      1.0  0.46749  0.41816  0.63785  1.0000
  H   H71       1.0  0.43366  0.34603  0.77446  1.0000
  O  Te7       1.0  0.61711  0.40546  0.92757  1.0000
  O  Te8       1.0  0.61164  0.49177  0.68568  1.0000
  H   H72       1.0  0.42884  0.42126  0.56356  1.0000
  Mg  Mg4       1.0  0.66961  0.46821  0.84812  1.0000
  C   C117      1.0  0.05144  0.07452  0.76466  1.0000
  C   C118      1.0  0.04831  0.02505  0.86193  1.0000
  C  Sn9       1.0  0.07519  0.97748  0.84250  1.0000
  C  Sn10      1.0  0.11859  0.97962  0.72339  1.0000
  C   C119      1.0  0.13401  0.02934  0.62675  1.0000
  C   C120      1.0  0.09425  0.07667  0.64719  1.0000
  H   H73       1.0  0.02070  0.11116  0.78051  1.0000
  O  Te9       1.0  0.07144  0.92839  0.94068  1.0000
  O  Te10      1.0  0.15864  0.93272  0.70145  1.0000
  H   H74       1.0  0.09670  0.11499  0.57192  1.0000
  Mg  Mg5       1.0  0.13584  0.87550  0.86474  1.0000
  C   C121      1.0  0.60148  0.46393  0.31436  1.0000
  C   C122      1.0  0.56008  0.50238  0.38280  1.0000
  C  Sn11      1.0  0.54652  0.55684  0.31333  1.0000
  C  Sn12      1.0  0.57498  0.57299  0.17270  1.0000
  C   C123      1.0  0.61630  0.53419  0.10508  1.0000
  C   C124      1.0  0.62956  0.47981  0.17562  1.0000
  H   H75       1.0  0.61172  0.42184  0.36888  1.0000
  O  Te11      1.0  0.50506  0.59474  0.38330  1.0000
  O  Te12      1.0  0.56223  0.62714  0.10075  1.0000
  H   H76       1.0  0.66159  0.45003  0.12254  1.0000
  Mg  Mg6       1.0  0.50258  0.66374  0.24091  1.0000
  C   C125      1.0  0.87561  0.02688  0.75135  1.0000
  C   C126      1.0  0.86504  0.98165  0.64021  1.0000
  C  Sn13      1.0  0.90401  0.93360  0.65885  1.0000
  C  Sn14      1.0  0.94155  0.93089  0.79135  1.0000
  C   C127      1.0  0.93913  0.97634  0.90193  1.0000
  C   C128      1.0  0.91261  0.02423  0.88211  1.0000
  H   H77       1.0  0.84531  0.06392  0.73607  1.0000
  O  Te13      1.0  0.90551  0.88880  0.54667  1.0000
  O  Te14      1.0  0.98090  0.88336  0.81290  1.0000
  H   H78       1.0  0.91100  0.05922  0.96823  1.0000
  Mg  Mg7       1.0  0.96664  0.83314  0.62779  1.0000
  C   C129      1.0  0.37261  0.52760  0.24351  1.0000
  C   C130      1.0  0.37457  0.48129  0.13548  1.0000
  C  Sn15      1.0  0.41239  0.43266  0.15928  1.0000
  C  Sn16      1.0  0.44887  0.43047  0.29386  1.0000
  C   C131      1.0  0.44656  0.47701  0.40130  1.0000
  C   C132      1.0  0.40857  0.52546  0.37631  1.0000
  H   H79       1.0  0.34319  0.56508  0.22424  1.0000
  O  Te15      1.0  0.41380  0.38679  0.05014  1.0000
  O  Te16      1.0  0.48707  0.38239  0.32055  1.0000
  H   H80       1.0  0.40704  0.56129  0.46003  1.0000
  Mg  Mg8       1.0  0.47316  0.33072  0.13805  1.0000
  C   C133      1.0  0.47165  0.12422  0.49157  1.0000
  C   C134      1.0  0.52176  0.12821  0.39706  1.0000
  C  Sn17      1.0  0.57022  0.09018  0.42097  1.0000
  C  Sn18      1.0  0.56833  0.04741  0.54181  1.0000
  C   C135      1.0  0.51797  0.04375  0.63566  1.0000
  C   C136      1.0  0.46974  0.08203  0.61074  1.0000
  H   H81       1.0  0.43431  0.15382  0.47225  1.0000
  O  Te17      1.0  0.61995  0.09477  0.32551  1.0000
  O  Te18      1.0  0.61614  0.00883  0.56822  1.0000
  H   H82       1.0  0.43093  0.07891  0.68387  1.0000
  Mg  Mg9       1.0  0.67398  0.03233  0.40731  1.0000
  C   C137      1.0  0.96614  0.60770  0.06875  1.0000
  C   C138      1.0  0.99916  0.55945  0.12480  1.0000
  C  Sn19      1.0  0.05278  0.54347  0.05441  1.0000
  C  Sn20      1.0  0.07417  0.57674  0.92557  1.0000
  C   C139      1.0  0.04082  0.62496  0.87044  1.0000
  C   C140      1.0  0.98722  0.64055  0.94171  1.0000
  H   H83       1.0  0.92468  0.61978  0.12393  1.0000
  O  Te19      1.0  0.08521  0.49513  0.11185  1.0000
  O  Te20      1.0  0.12761  0.56176  0.85307  1.0000
  H   H84       1.0  0.96168  0.67793  0.89835  1.0000
  Mg  Mg10      1.0  0.15593  0.49223  0.97380  1.0000
  C   C141      1.0  0.42581  0.95264  0.50859  1.0000
  C   C142      1.0  0.47082  0.95035  0.62035  1.0000
  C  Sn21      1.0  0.51809  0.91030  0.60402  1.0000
  C  Sn22      1.0  0.52021  0.87189  0.47324  1.0000
  C   C143      1.0  0.47498  0.87456  0.36201  1.0000
  C   C144      1.0  0.42788  0.91479  0.37952  1.0000
  H   H85       1.0  0.38938  0.98379  0.52207  1.0000
  O  Te21      1.0  0.56268  0.90858  0.71680  1.0000
  O  Te22      1.0  0.56695  0.83145  0.45402  1.0000
  H   H86       1.0  0.39306  0.91658  0.29292  1.0000
  Mg  Mg11      1.0  0.61718  0.84583  0.63907  1.0000
  C   C145      1.0  0.92115  0.45193  0.00927  1.0000
  C   C146      1.0  0.96605  0.44933  0.12130  1.0000
  C  Sn23      1.0  0.01326  0.40923  0.10473  1.0000
  C  Sn24      1.0  0.01600  0.37131  0.97341  1.0000
  C   C147      1.0  0.97088  0.37429  0.86192  1.0000
  C   C148      1.0  0.92383  0.41457  0.87969  1.0000
  H   H87       1.0  0.88476  0.48312  0.02296  1.0000
  O  Te23      1.0  0.05774  0.40719  0.21778  1.0000
  O  Te24      1.0  0.06268  0.33083  0.95393  1.0000
  H   H88       1.0  0.88909  0.41660  0.79287  1.0000
  Mg  Mg12      1.0  0.11220  0.34450  0.13953  1.0000
  C   C149      1.0  0.43174  0.08276  0.05694  1.0000
  C   C150      1.0  0.38446  0.04941  0.11209  1.0000
  C  Sn25      1.0  0.35735  0.99594  0.04026  1.0000
  C  Sn26      1.0  0.39148  0.97582  0.91088  1.0000
  C   C151      1.0  0.45135  0.00950  0.85666  1.0000
  C   C152      1.0  0.46544  0.06294  0.92937  1.0000
  H   H89       1.0  0.44266  0.12409  0.11325  1.0000
  O  Te25      1.0  0.30996  0.96318  0.09681  1.0000
  O  Te26      1.0  0.37798  0.92254  0.83694  1.0000
  H   H90       1.0  0.50207  0.08873  0.88671  1.0000
  Mg  Mg13      1.0  0.30933  0.89364  0.95688  1.0000
  C   C153      1.0  0.89147  0.46985  0.43200  1.0000
  C   C154      1.0  0.93255  0.50716  0.36199  1.0000
  C  Sn27      1.0  0.94654  0.56131  0.43085  1.0000
  C  Sn28      1.0  0.91882  0.57832  0.57244  1.0000
  C   C155      1.0  0.87781  0.54066  0.64161  1.0000
  C   C156      1.0  0.86412  0.48658  0.57169  1.0000
  H   H91       1.0  0.88090  0.42799  0.37795  1.0000
  O  Te27      1.0  0.98767  0.59806  0.35931  1.0000
  O  Te28      1.0  0.93200  0.63219  0.64379  1.0000
  H   H92       1.0  0.83234  0.45769  0.62597  1.0000
  Mg  Mg14      1.0  0.99096  0.66710  0.50143  1.0000
  C   C157      1.0  0.62513  0.02750  0.00172  1.0000
  C   C158      1.0  0.61029  0.98208  0.11201  1.0000
  C  Sn29      1.0  0.57177  0.93475  0.09132  1.0000
  C  Sn30      1.0  0.53541  0.93320  0.95759  1.0000
  C   C159      1.0  0.53799  0.97883  0.84788  1.0000
  C   C160      1.0  0.58931  0.02599  0.86976  1.0000
  H   H93       1.0  0.65509  0.06398  0.01859  1.0000
  O  Te29      1.0  0.57010  0.88976  0.20267  1.0000
  O  Te30      1.0  0.49653  0.88640  0.93400  1.0000
  H   H94       1.0  0.59105  0.06113  0.78430  1.0000
  Mg  Mg15      1.0  0.50977  0.83534  0.11867  1.0000
  C   C161      1.0  0.10176  0.53142  0.43188  1.0000
  C   C162      1.0  0.05979  0.49459  0.36342  1.0000
  C  Sn31      1.0  0.04538  0.44078  0.43326  1.0000
  C  Sn32      1.0  0.07357  0.42366  0.57427  1.0000
  C   C163      1.0  0.11547  0.46085  0.64189  1.0000
  C   C164      1.0  0.12958  0.51458  0.57099  1.0000
  H   H95       1.0  0.11266  0.57302  0.37708  1.0000
  O  Te31      1.0  0.00335  0.40450  0.36328  1.0000
  O  Te32      1.0  0.05998  0.37013  0.64658  1.0000
  H   H96       1.0  0.16205  0.54311  0.62407  1.0000
  Mg  Mg16      1.0  0.99979  0.33581  0.50625  1.0000
