data_image0
_chemical_formula_structural       N6C24N6C2HO2C2HO2C2HO2C2HO2C2HO2C2HO2N6C24N6C2HO2C2HO2C2HO2C2HO2C2HO2C2HO2C2Sn2C2HTe2HMgC2Sn2C2HTe2HMgC2Sn2C2HTe2HMgC2Sn2C2HTe2HMgC2Sn2C2HTe2HMgC2Sn2C2HTe2HMgC2Sn2C2HTe2HMgC2Sn2C2HTe2HMgC2Sn2C2HTe2HMgC2Sn2C2HTe2HMgC2Sn2C2HTe2HMgC2Sn2C2HTe2HMg
_chemical_formula_sum              "N24 C120 H36 O24 Sn24 Te24 Mg12"
_cell_length_a       36.2075
_cell_length_b       36.2459
_cell_length_c       7.89837
_cell_angle_alpha    115.138
_cell_angle_beta     89.5578
_cell_angle_gamma    120.409

_symmetry_space_group_name_H-M    'P1'
_space_group_IT_number       1

loop_
  _space_group_symop_operation_xyz
  'x, y, z'

loop_
  _atom_site_type_symbol
  _atom_site_label
  _atom_site_symmetry_multiplicity
  _atom_site_fract_x
  _atom_site_fract_y
  _atom_site_fract_z
  _atom_site_occupancy
  N   N1        1.0  0.44510  0.55321  0.25546  1.0000
  N   N2        1.0  0.44856  0.88950  0.24334  1.0000
  N   N3        1.0  0.10867  0.55496  0.24882  1.0000
  N   N4        1.0  0.55284  0.44407  0.25416  1.0000
  N   N5        1.0  0.55383  0.10665  0.24111  1.0000
  N   N6        1.0  0.89088  0.44737  0.25666  1.0000
  C   C1        1.0  0.53871  0.53755  0.24498  1.0000
  C   C2        1.0  0.46304  0.00068  0.27224  1.0000
  C   C3        1.0  0.00016  0.46290  0.26728  1.0000
  C   C4        1.0  0.45922  0.45969  0.26529  1.0000
  C   C5        1.0  0.53966  0.99512  0.20948  1.0000
  C   C6        1.0  0.99939  0.53980  0.23896  1.0000
  C   C7        1.0  0.53647  0.49826  0.24770  1.0000
  C   C8        1.0  0.50105  0.03666  0.25517  1.0000
  C   C9        1.0  0.96239  0.46419  0.25984  1.0000
  C   C10       1.0  0.46143  0.49895  0.26209  1.0000
  C   C11       1.0  0.50162  0.95907  0.22635  1.0000
  C   C12       1.0  0.03726  0.53871  0.24754  1.0000
  C   C13       1.0  0.49829  0.46091  0.25839  1.0000
  C   C14       1.0  0.53795  0.03399  0.22460  1.0000
  C   C15       1.0  0.96187  0.50093  0.24458  1.0000
  C   C16       1.0  0.49965  0.53637  0.25237  1.0000
  C   C17       1.0  0.46482  0.96192  0.25746  1.0000
  C   C18       1.0  0.03754  0.50157  0.26017  1.0000
  C   C19       1.0  0.35422  0.70452  0.22303  1.0000
  C   C20       1.0  0.29066  0.64234  0.22707  1.0000
  C   C21       1.0  0.35365  0.64242  0.23348  1.0000
  C   C22       1.0  0.64557  0.29280  0.27072  1.0000
  C   C23       1.0  0.70847  0.35623  0.26945  1.0000
  C   C24       1.0  0.64459  0.35432  0.26203  1.0000
  N   N7        1.0  0.31092  0.68446  0.21956  1.0000
  N   N8        1.0  0.31044  0.61969  0.23279  1.0000
  N   N9        1.0  0.37704  0.68499  0.22975  1.0000
  N   N10       1.0  0.68895  0.31390  0.27530  1.0000
  N   N11       1.0  0.68784  0.37804  0.26392  1.0000
  N   N12       1.0  0.62189  0.31151  0.26420  1.0000
  C   C25       1.0  0.57155  0.48819  0.24142  1.0000
  C   C26       1.0  0.50800  0.42648  0.26678  1.0000
  H   H1        1.0  0.56845  0.56677  0.23728  1.0000
  O   O1        1.0  0.60870  0.51277  0.22683  1.0000
  O   O2        1.0  0.48286  0.39100  0.28675  1.0000
  C   C27       1.0  0.50994  0.08211  0.26198  1.0000
  C   C28       1.0  0.57171  0.07757  0.20899  1.0000
  H   H2        1.0  0.43429  0.00270  0.29533  1.0000
  O   O3        1.0  0.48448  0.09536  0.27918  1.0000
  O   O4        1.0  0.60684  0.08631  0.16972  1.0000
  C   C29       1.0  0.91813  0.43042  0.27301  1.0000
  C   C30       1.0  0.91646  0.49061  0.23737  1.0000
  H   H3        1.0  0.00032  0.43405  0.27842  1.0000
  O   O5        1.0  0.90785  0.39598  0.29969  1.0000
  O   O6        1.0  0.90378  0.51424  0.21704  1.0000
  C   C31       1.0  0.42619  0.50873  0.26553  1.0000
  C   C32       1.0  0.49003  0.57087  0.24413  1.0000
  H   H4        1.0  0.42939  0.43054  0.27282  1.0000
  O   O7        1.0  0.38869  0.48346  0.27528  1.0000
  O   O8        1.0  0.51544  0.60637  0.22473  1.0000
  C   C33       1.0  0.49237  0.91343  0.21968  1.0000
  C   C34       1.0  0.43100  0.91873  0.27452  1.0000
  H   H5        1.0  0.56841  0.99312  0.18650  1.0000
  O   O9        1.0  0.51723  0.89941  0.19995  1.0000
  O   O10       1.0  0.39596  0.91048  0.31408  1.0000
  C   C35       1.0  0.08190  0.57296  0.23835  1.0000
  C   C36       1.0  0.08258  0.51112  0.26322  1.0000
  H   H6        1.0  0.99915  0.56858  0.22779  1.0000
  O   O11       1.0  0.09284  0.60863  0.21979  1.0000
  O   O12       1.0  0.09450  0.48616  0.27604  1.0000
  N   N13       1.0  0.44779  0.55706  0.75183  1.0000
  N   N14       1.0  0.44517  0.89199  0.74554  1.0000
  N   N15       1.0  0.10968  0.55352  0.75164  1.0000
  N   N16       1.0  0.55568  0.44804  0.75051  1.0000
  N   N17       1.0  0.55006  0.10847  0.73803  1.0000
  N   N18       1.0  0.89165  0.44557  0.75655  1.0000
  C   C37       1.0  0.54153  0.54159  0.74107  1.0000
  C   C38       1.0  0.45938  0.00355  0.77719  1.0000
  C   C39       1.0  0.00096  0.46080  0.76728  1.0000
  C   C40       1.0  0.46232  0.46417  0.76488  1.0000
  C   C41       1.0  0.53569  0.99752  0.71095  1.0000
  C   C42       1.0  0.00043  0.53819  0.74246  1.0000
  C   C43       1.0  0.53936  0.50237  0.74442  1.0000
  C   C44       1.0  0.49727  0.03931  0.75816  1.0000
  C   C45       1.0  0.96318  0.46210  0.76002  1.0000
  C   C46       1.0  0.46448  0.50336  0.76149  1.0000
  C   C47       1.0  0.49779  0.96178  0.72955  1.0000
  C   C48       1.0  0.03820  0.53686  0.74970  1.0000
  C   C49       1.0  0.50129  0.46517  0.75605  1.0000
  C   C50       1.0  0.53395  0.03629  0.72574  1.0000
  C   C51       1.0  0.96294  0.49932  0.74786  1.0000
  C   C52       1.0  0.50251  0.54050  0.74904  1.0000
  C   C53       1.0  0.46105  0.96464  0.76180  1.0000
  C   C54       1.0  0.03855  0.49974  0.76216  1.0000
  C   C55       1.0  0.35407  0.70651  0.72218  1.0000
  C   C56       1.0  0.29157  0.64368  0.72861  1.0000
  C   C57       1.0  0.35549  0.64565  0.73540  1.0000
  C   C58       1.0  0.64530  0.29480  0.76980  1.0000
  C   C59       1.0  0.70921  0.35738  0.76979  1.0000
  C   C60       1.0  0.64630  0.35737  0.76200  1.0000
  N   N19       1.0  0.31077  0.68554  0.71932  1.0000
  N   N20       1.0  0.31234  0.62206  0.73497  1.0000
  N   N21       1.0  0.37791  0.68806  0.73020  1.0000
  N   N22       1.0  0.68873  0.31505  0.77579  1.0000
  N   N23       1.0  0.68953  0.38008  0.76340  1.0000
  N   N24       1.0  0.62264  0.31453  0.76361  1.0000
  C   C61       1.0  0.57443  0.49224  0.73849  1.0000
  C   C62       1.0  0.51087  0.43056  0.76360  1.0000
  H   H7        1.0  0.57129  0.57059  0.73238  1.0000
  O   O13       1.0  0.61168  0.51697  0.72518  1.0000
  O   O14       1.0  0.48554  0.39509  0.78337  1.0000
  C   C63       1.0  0.50634  0.08465  0.76267  1.0000
  C   C64       1.0  0.56755  0.07921  0.70659  1.0000
  H   H8        1.0  0.43081  0.00581  0.80194  1.0000
  O   O15       1.0  0.48131  0.09843  0.78080  1.0000
  O   O16       1.0  0.60239  0.08719  0.66504  1.0000
  C   C65       1.0  0.91858  0.42797  0.77015  1.0000
  C   C66       1.0  0.91776  0.48950  0.74278  1.0000
  H   H9        1.0  0.00104  0.43173  0.77659  1.0000
  O   O17       1.0  0.90776  0.39279  0.79227  1.0000
  O   O18       1.0  0.90572  0.51423  0.72844  1.0000
  C   C67       1.0  0.42940  0.51344  0.76791  1.0000
  C   C68       1.0  0.49259  0.57463  0.73874  1.0000
  H   H10       1.0  0.43269  0.43512  0.77406  1.0000
  O   O19       1.0  0.39247  0.48921  0.78505  1.0000
  O   O20       1.0  0.51748  0.60981  0.71670  1.0000
  C   C69       1.0  0.48890  0.91631  0.72232  1.0000
  C   C70       1.0  0.42734  0.92113  0.77786  1.0000
  H   H11       1.0  0.56430  0.99529  0.68638  1.0000
  O   O21       1.0  0.51428  0.90293  0.70236  1.0000
  O   O22       1.0  0.39220  0.91247  0.81683  1.0000
  C   C71       1.0  0.08256  0.57083  0.73804  1.0000
  C   C72       1.0  0.08378  0.50960  0.76596  1.0000
  H   H12       1.0  0.00026  0.56714  0.73236  1.0000
  O   O23       1.0  0.09298  0.60572  0.71422  1.0000
  O   O24       1.0  0.09606  0.48495  0.77909  1.0000
  C   C73       1.0  0.43195  0.64064  0.23315  1.0000
  C   C74       1.0  0.38748  0.62402  0.22725  1.0000
  C  Sn1       1.0  0.35973  0.58211  0.24348  1.0000
  C  Sn2       1.0  0.37691  0.55645  0.26607  1.0000
  C   C75       1.0  0.42146  0.57339  0.27194  1.0000
  C   C76       1.0  0.44893  0.61536  0.25551  1.0000
  H   H13       1.0  0.45321  0.67313  0.22054  1.0000
  O  Te1       1.0  0.31538  0.56600  0.23722  1.0000
  O  Te2       1.0  0.34992  0.51446  0.28270  1.0000
  H   H14       1.0  0.48337  0.62824  0.26021  1.0000
  Mg  Mg1       1.0  0.29173  0.50691  0.26586  1.0000
  C   C77       1.0  0.36756  0.80294  0.17127  1.0000
  C   C78       1.0  0.41334  0.83774  0.22873  1.0000
  C  Sn3       1.0  0.44289  0.82778  0.27902  1.0000
  C  Sn4       1.0  0.42620  0.78211  0.27145  1.0000
  C   C79       1.0  0.38035  0.74753  0.21364  1.0000
  C   C80       1.0  0.35108  0.75788  0.16369  1.0000
  H   H15       1.0  0.34490  0.81093  0.13252  1.0000
  O  Te3       1.0  0.48852  0.86297  0.33618  1.0000
  O  Te4       1.0  0.45500  0.77120  0.32086  1.0000
  H   H16       1.0  0.31564  0.73091  0.11908  1.0000
  Mg  Mg2       1.0  0.51444  0.83101  0.38968  1.0000
  C   C81       1.0  0.18620  0.55336  0.23994  1.0000
  C   C82       1.0  0.15927  0.57111  0.25269  1.0000
  C  Sn5       1.0  0.17502  0.61437  0.24590  1.0000
  C  Sn6       1.0  0.21854  0.64024  0.22592  1.0000
  C   C83       1.0  0.24520  0.62216  0.21315  1.0000
  C   C84       1.0  0.22912  0.57884  0.22016  1.0000
  H   H17       1.0  0.17375  0.51983  0.24526  1.0000
  O  Te5       1.0  0.14769  0.63160  0.25891  1.0000
  O  Te6       1.0  0.23511  0.68355  0.21868  1.0000
  H   H18       1.0  0.24996  0.56509  0.21016  1.0000
  Mg  Mg3       1.0  0.18523  0.69230  0.24215  1.0000
  C   C85       1.0  0.64254  0.43134  0.25031  1.0000
  C   C86       1.0  0.62770  0.38935  0.26609  1.0000
  C  Sn7       1.0  0.58374  0.36096  0.26866  1.0000
  C  Sn8       1.0  0.55416  0.37496  0.25510  1.0000
  C   C87       1.0  0.56933  0.41701  0.23921  1.0000
  C   C88       1.0  0.61339  0.44516  0.23685  1.0000
  H   H19       1.0  0.67663  0.45311  0.24837  1.0000
  O  Te7       1.0  0.56946  0.31913  0.28459  1.0000
  O  Te8       1.0  0.51005  0.34724  0.25724  1.0000
  H   H20       1.0  0.62487  0.47765  0.22450  1.0000
  Mg  Mg4       1.0  0.50627  0.29331  0.28133  1.0000
  C   C89       1.0  0.55233  0.18046  0.20685  1.0000
  C   C90       1.0  0.56931  0.15517  0.22861  1.0000
  C  Sn9       1.0  0.61517  0.17730  0.28100  1.0000
  C  Sn10      1.0  0.64449  0.22565  0.31214  1.0000
  C   C91       1.0  0.62718  0.25065  0.29014  1.0000
  C   C92       1.0  0.58123  0.22815  0.23760  1.0000
  H   H21       1.0  0.51679  0.16306  0.16631  1.0000
  O  Te9       1.0  0.63157  0.15152  0.30205  1.0000
  O  Te10      1.0  0.69047  0.24865  0.36468  1.0000
  H   H22       1.0  0.56810  0.24775  0.22089  1.0000
  Mg  Mg5       1.0  0.69679  0.19848  0.37551  1.0000
  C   C93       1.0  0.81251  0.36955  0.26283  1.0000
  C   C94       1.0  0.83984  0.41177  0.24796  1.0000
  C  Sn11      1.0  0.82453  0.44051  0.25160  1.0000
  C  Sn12      1.0  0.78104  0.42663  0.27055  1.0000
  C   C95       1.0  0.75397  0.38434  0.28547  1.0000
  C   C96       1.0  0.76962  0.35585  0.28160  1.0000
  H   H23       1.0  0.82463  0.34751  0.25995  1.0000
  O  Te11      1.0  0.85226  0.48257  0.23650  1.0000
  O  Te12      1.0  0.76491  0.45470  0.27466  1.0000
  H   H24       1.0  0.74847  0.32318  0.29325  1.0000
  Mg  Mg6       1.0  0.81523  0.50884  0.24923  1.0000
  C   C97       1.0  0.44792  0.63552  0.75375  1.0000
  C   C98       1.0  0.43252  0.59274  0.76398  1.0000
  C  Sn13      1.0  0.38785  0.56288  0.75415  1.0000
  C  Sn14      1.0  0.35812  0.57619  0.73364  1.0000
  C   C99       1.0  0.37384  0.61905  0.72339  1.0000
  C   C100      1.0  0.41861  0.64867  0.73344  1.0000
  H   H25       1.0  0.48255  0.65843  0.76141  1.0000
  O  Te13      1.0  0.37303  0.52027  0.76467  1.0000
  O  Te14      1.0  0.31330  0.54701  0.72337  1.0000
  H   H26       1.0  0.43051  0.68178  0.72539  1.0000
  Mg  Mg7       1.0  0.30896  0.49248  0.74422  1.0000
  C   C101      1.0  0.43449  0.79297  0.76932  1.0000
  C   C102      1.0  0.38911  0.76086  0.74086  1.0000
  C  Sn15      1.0  0.35890  0.77097  0.69925  1.0000
  C  Sn16      1.0  0.37452  0.81404  0.68594  1.0000
  C   C103      1.0  0.41999  0.84591  0.71451  1.0000
  C   C104      1.0  0.44993  0.83545  0.75613  1.0000
  H   H27       1.0  0.45766  0.78486  0.80142  1.0000
  O  Te15      1.0  0.31367  0.73851  0.67130  1.0000
  O  Te16      1.0  0.34506  0.82503  0.64447  1.0000
  H   H28       1.0  0.48507  0.86030  0.77804  1.0000
  Mg  Mg8       1.0  0.28653  0.76946  0.61812  1.0000
  C   C105      1.0  0.21158  0.64223  0.73607  1.0000
  C   C106      1.0  0.24059  0.62807  0.74568  1.0000
  C  Sn17      1.0  0.22528  0.58446  0.74876  1.0000
  C  Sn18      1.0  0.18008  0.55454  0.74202  1.0000
  C   C107      1.0  0.15131  0.56902  0.73228  1.0000
  C   C108      1.0  0.16698  0.61274  0.72934  1.0000
  H   H29       1.0  0.22369  0.67604  0.73368  1.0000
  O  Te17      1.0  0.25472  0.57086  0.75846  1.0000
  O  Te18      1.0  0.16390  0.51076  0.74483  1.0000
  H   H30       1.0  0.14450  0.62368  0.72177  1.0000
  Mg  Mg9       1.0  0.21692  0.50792  0.75887  1.0000
  C   C109      1.0  0.55603  0.37128  0.76358  1.0000
  C   C110      1.0  0.57240  0.41561  0.76506  1.0000
  C  Sn19      1.0  0.61588  0.44264  0.75447  1.0000
  C  Sn20      1.0  0.64341  0.42487  0.74213  1.0000
  C   C111      1.0  0.62671  0.38046  0.74061  1.0000
  C   C112      1.0  0.58315  0.35371  0.75134  1.0000
  H   H31       1.0  0.52232  0.35057  0.77177  1.0000
  O  Te19      1.0  0.63171  0.48686  0.75619  1.0000
  O  Te20      1.0  0.68700  0.45114  0.73131  1.0000
  H   H32       1.0  0.57048  0.31938  0.75006  1.0000
  Mg  Mg10      1.0  0.69343  0.50943  0.73858  1.0000
  C   C113      1.0  0.64360  0.21978  0.81776  1.0000
  C   C114      1.0  0.62743  0.24229  0.76543  1.0000
  C  Sn21      1.0  0.58172  0.22065  0.70966  1.0000
  C  Sn22      1.0  0.55172  0.17563  0.70642  1.0000
  C   C115      1.0  0.56823  0.15342  0.75916  1.0000
  C   C116      1.0  0.61403  0.17539  0.81467  1.0000
  H   H33       1.0  0.67904  0.23679  0.86082  1.0000
  O  Te21      1.0  0.56613  0.24362  0.65775  1.0000
  O  Te22      1.0  0.50587  0.15321  0.65134  1.0000
  H   H34       1.0  0.62654  0.15797  0.85530  1.0000
  Mg  Mg11      1.0  0.50077  0.19872  0.59315  1.0000
  C   C117      1.0  0.81284  0.44454  0.74482  1.0000
  C   C118      1.0  0.84209  0.43168  0.76889  1.0000
  C  Sn23      1.0  0.82685  0.38968  0.78507  1.0000
  C  Sn24      1.0  0.78147  0.36007  0.77689  1.0000
  C   C119      1.0  0.75248  0.37323  0.75264  1.0000
  C   C120      1.0  0.76808  0.41535  0.73667  1.0000
  H   H35       1.0  0.82491  0.47711  0.73236  1.0000
  O  Te23      1.0  0.85652  0.37737  0.80912  1.0000
  O  Te24      1.0  0.76536  0.31789  0.79260  1.0000
  H   H36       1.0  0.74542  0.42528  0.71791  1.0000
  Mg  Mg12      1.0  0.81872  0.31639  0.82372  1.0000
