data_image0
_chemical_formula_structural       N6C24N6C2HO2C2HO2C2HO2C2HO2C2HO2C2HO2N6C24N6C2HO2C2HO2C2HO2C2HO2C2HO2C2HO2SnCSn2CSnTe4Mg2SnCSn2CSnTe4Mg2SnCSn2CSnTe4Mg2SnCSn2CSnTe4Mg2SnCSn2CSnTe4Mg2SnCSn2CSnTe4Mg2SnCSn2CSnTe4Mg2SnCSn2CSnTe4Mg2SnCSn2CSnTe4Mg2SnCSn2CSnTe4Mg2SnCSn2CSnTe4Mg2SnCSn2CSnTe4Mg2
_chemical_formula_sum              "N24 C96 H12 O24 Sn48 Te48 Mg24"
_cell_length_a       36.2075
_cell_length_b       36.2459
_cell_length_c       7.89837
_cell_angle_alpha    115.138
_cell_angle_beta     89.5578
_cell_angle_gamma    120.409

_symmetry_space_group_name_H-M    'P1'
_space_group_IT_number       1

loop_
  _space_group_symop_operation_xyz
  'x, y, z'

loop_
  _atom_site_type_symbol
  _atom_site_label
  _atom_site_symmetry_multiplicity
  _atom_site_fract_x
  _atom_site_fract_y
  _atom_site_fract_z
  _atom_site_occupancy
  N   N1        1.0  0.44510  0.55321  0.25546  1.0000
  N   N2        1.0  0.44856  0.88950  0.24334  1.0000
  N   N3        1.0  0.10867  0.55496  0.24882  1.0000
  N   N4        1.0  0.55284  0.44407  0.25416  1.0000
  N   N5        1.0  0.55383  0.10665  0.24111  1.0000
  N   N6        1.0  0.89088  0.44737  0.25666  1.0000
  C   C1        1.0  0.53871  0.53755  0.24498  1.0000
  C   C2        1.0  0.46304  0.00068  0.27224  1.0000
  C   C3        1.0  0.00016  0.46290  0.26728  1.0000
  C   C4        1.0  0.45922  0.45969  0.26529  1.0000
  C   C5        1.0  0.53966  0.99512  0.20948  1.0000
  C   C6        1.0  0.99939  0.53980  0.23896  1.0000
  C   C7        1.0  0.53647  0.49826  0.24770  1.0000
  C   C8        1.0  0.50105  0.03666  0.25517  1.0000
  C   C9        1.0  0.96239  0.46419  0.25984  1.0000
  C   C10       1.0  0.46143  0.49895  0.26209  1.0000
  C   C11       1.0  0.50162  0.95907  0.22635  1.0000
  C   C12       1.0  0.03726  0.53871  0.24754  1.0000
  C   C13       1.0  0.49829  0.46091  0.25839  1.0000
  C   C14       1.0  0.53795  0.03399  0.22460  1.0000
  C   C15       1.0  0.96187  0.50093  0.24458  1.0000
  C   C16       1.0  0.49965  0.53637  0.25237  1.0000
  C   C17       1.0  0.46482  0.96192  0.25746  1.0000
  C   C18       1.0  0.03754  0.50157  0.26017  1.0000
  C   C19       1.0  0.35422  0.70452  0.22303  1.0000
  C   C20       1.0  0.29066  0.64234  0.22707  1.0000
  C   C21       1.0  0.35365  0.64242  0.23348  1.0000
  C   C22       1.0  0.64557  0.29280  0.27072  1.0000
  C   C23       1.0  0.70847  0.35623  0.26945  1.0000
  C   C24       1.0  0.64459  0.35432  0.26203  1.0000
  N   N7        1.0  0.31092  0.68446  0.21956  1.0000
  N   N8        1.0  0.31044  0.61969  0.23279  1.0000
  N   N9        1.0  0.37704  0.68499  0.22975  1.0000
  N   N10       1.0  0.68895  0.31390  0.27530  1.0000
  N   N11       1.0  0.68784  0.37804  0.26392  1.0000
  N   N12       1.0  0.62189  0.31151  0.26420  1.0000
  C   C25       1.0  0.57155  0.48819  0.24142  1.0000
  C   C26       1.0  0.50800  0.42648  0.26678  1.0000
  H   H1        1.0  0.56845  0.56677  0.23728  1.0000
  O   O1        1.0  0.60870  0.51277  0.22683  1.0000
  O   O2        1.0  0.48286  0.39100  0.28675  1.0000
  C   C27       1.0  0.50994  0.08211  0.26198  1.0000
  C   C28       1.0  0.57171  0.07757  0.20899  1.0000
  H   H2        1.0  0.43429  0.00270  0.29533  1.0000
  O   O3        1.0  0.48448  0.09536  0.27918  1.0000
  O   O4        1.0  0.60684  0.08631  0.16972  1.0000
  C   C29       1.0  0.91813  0.43042  0.27301  1.0000
  C   C30       1.0  0.91646  0.49061  0.23737  1.0000
  H   H3        1.0  0.00032  0.43405  0.27842  1.0000
  O   O5        1.0  0.90785  0.39598  0.29969  1.0000
  O   O6        1.0  0.90378  0.51424  0.21704  1.0000
  C   C31       1.0  0.42619  0.50873  0.26553  1.0000
  C   C32       1.0  0.49003  0.57087  0.24413  1.0000
  H   H4        1.0  0.42939  0.43054  0.27282  1.0000
  O   O7        1.0  0.38869  0.48346  0.27528  1.0000
  O   O8        1.0  0.51544  0.60637  0.22473  1.0000
  C   C33       1.0  0.49237  0.91343  0.21968  1.0000
  C   C34       1.0  0.43100  0.91873  0.27452  1.0000
  H   H5        1.0  0.56841  0.99312  0.18650  1.0000
  O   O9        1.0  0.51723  0.89941  0.19995  1.0000
  O   O10       1.0  0.39596  0.91048  0.31408  1.0000
  C   C35       1.0  0.08190  0.57296  0.23835  1.0000
  C   C36       1.0  0.08258  0.51112  0.26322  1.0000
  H   H6        1.0  0.99915  0.56858  0.22779  1.0000
  O   O11       1.0  0.09284  0.60863  0.21979  1.0000
  O   O12       1.0  0.09450  0.48616  0.27604  1.0000
  N   N13       1.0  0.44779  0.55706  0.75183  1.0000
  N   N14       1.0  0.44517  0.89199  0.74554  1.0000
  N   N15       1.0  0.10968  0.55352  0.75164  1.0000
  N   N16       1.0  0.55568  0.44804  0.75051  1.0000
  N   N17       1.0  0.55006  0.10847  0.73803  1.0000
  N   N18       1.0  0.89165  0.44557  0.75655  1.0000
  C   C37       1.0  0.54153  0.54159  0.74107  1.0000
  C   C38       1.0  0.45938  0.00355  0.77719  1.0000
  C   C39       1.0  0.00096  0.46080  0.76728  1.0000
  C   C40       1.0  0.46232  0.46417  0.76488  1.0000
  C   C41       1.0  0.53569  0.99752  0.71095  1.0000
  C   C42       1.0  0.00043  0.53819  0.74246  1.0000
  C   C43       1.0  0.53936  0.50237  0.74442  1.0000
  C   C44       1.0  0.49727  0.03931  0.75816  1.0000
  C   C45       1.0  0.96318  0.46210  0.76002  1.0000
  C   C46       1.0  0.46448  0.50336  0.76149  1.0000
  C   C47       1.0  0.49779  0.96178  0.72955  1.0000
  C   C48       1.0  0.03820  0.53686  0.74970  1.0000
  C   C49       1.0  0.50129  0.46517  0.75605  1.0000
  C   C50       1.0  0.53395  0.03629  0.72574  1.0000
  C   C51       1.0  0.96294  0.49932  0.74786  1.0000
  C   C52       1.0  0.50251  0.54050  0.74904  1.0000
  C   C53       1.0  0.46105  0.96464  0.76180  1.0000
  C   C54       1.0  0.03855  0.49974  0.76216  1.0000
  C   C55       1.0  0.35407  0.70651  0.72218  1.0000
  C   C56       1.0  0.29157  0.64368  0.72861  1.0000
  C   C57       1.0  0.35549  0.64565  0.73540  1.0000
  C   C58       1.0  0.64530  0.29480  0.76980  1.0000
  C   C59       1.0  0.70921  0.35738  0.76979  1.0000
  C   C60       1.0  0.64630  0.35737  0.76200  1.0000
  N   N19       1.0  0.31077  0.68554  0.71932  1.0000
  N   N20       1.0  0.31234  0.62206  0.73497  1.0000
  N   N21       1.0  0.37791  0.68806  0.73020  1.0000
  N   N22       1.0  0.68873  0.31505  0.77579  1.0000
  N   N23       1.0  0.68953  0.38008  0.76340  1.0000
  N   N24       1.0  0.62264  0.31453  0.76361  1.0000
  C   C61       1.0  0.57443  0.49224  0.73849  1.0000
  C   C62       1.0  0.51087  0.43056  0.76360  1.0000
  H   H7        1.0  0.57129  0.57059  0.73238  1.0000
  O   O13       1.0  0.61168  0.51697  0.72518  1.0000
  O   O14       1.0  0.48554  0.39509  0.78337  1.0000
  C   C63       1.0  0.50634  0.08465  0.76267  1.0000
  C   C64       1.0  0.56755  0.07921  0.70659  1.0000
  H   H8        1.0  0.43081  0.00581  0.80194  1.0000
  O   O15       1.0  0.48131  0.09843  0.78080  1.0000
  O   O16       1.0  0.60239  0.08719  0.66504  1.0000
  C   C65       1.0  0.91858  0.42797  0.77015  1.0000
  C   C66       1.0  0.91776  0.48950  0.74278  1.0000
  H   H9        1.0  0.00104  0.43173  0.77659  1.0000
  O   O17       1.0  0.90776  0.39279  0.79227  1.0000
  O   O18       1.0  0.90572  0.51423  0.72844  1.0000
  C   C67       1.0  0.42940  0.51344  0.76791  1.0000
  C   C68       1.0  0.49259  0.57463  0.73874  1.0000
  H   H10       1.0  0.43269  0.43512  0.77406  1.0000
  O   O19       1.0  0.39247  0.48921  0.78505  1.0000
  O   O20       1.0  0.51748  0.60981  0.71670  1.0000
  C   C69       1.0  0.48890  0.91631  0.72232  1.0000
  C   C70       1.0  0.42734  0.92113  0.77786  1.0000
  H   H11       1.0  0.56430  0.99529  0.68638  1.0000
  O   O21       1.0  0.51428  0.90293  0.70236  1.0000
  O   O22       1.0  0.39220  0.91247  0.81683  1.0000
  C   C71       1.0  0.08256  0.57083  0.73804  1.0000
  C   C72       1.0  0.08378  0.50960  0.76596  1.0000
  H   H12       1.0  0.00026  0.56714  0.73236  1.0000
  O   O23       1.0  0.09298  0.60572  0.71422  1.0000
  O   O24       1.0  0.09606  0.48495  0.77909  1.0000
  C  Sn1       1.0  0.44596  0.63390  0.29048  1.0000
  C   C73       1.0  0.42980  0.59127  0.30294  1.0000
  C  Sn2       1.0  0.38418  0.55851  0.26603  1.0000
  C  Sn3       1.0  0.35407  0.56855  0.21550  1.0000
  C   C74       1.0  0.37024  0.61116  0.20303  1.0000
  C  Sn4       1.0  0.41586  0.64395  0.23995  1.0000
  O  Te1       1.0  0.49170  0.66614  0.32798  1.0000
  O  Te2       1.0  0.36881  0.51613  0.27946  1.0000
  O  Te3       1.0  0.30830  0.53627  0.17800  1.0000
  O  Te4       1.0  0.43122  0.68629  0.22651  1.0000
  Mg  Mg1       1.0  0.30354  0.48345  0.21484  1.0000
  Mg  Mg2       1.0  0.49648  0.71898  0.29100  1.0000
  C  Sn5       1.0  0.35743  0.77199  0.12082  1.0000
  C   C75       1.0  0.37473  0.74964  0.16731  1.0000
  C  Sn6       1.0  0.41932  0.77665  0.26732  1.0000
  C  Sn7       1.0  0.44719  0.82705  0.32211  1.0000
  C   C76       1.0  0.42989  0.84937  0.27565  1.0000
  C  Sn8       1.0  0.38531  0.82239  0.17561  1.0000
  O  Te5       1.0  0.31276  0.74429  0.02078  1.0000
  O  Te6       1.0  0.43586  0.75350  0.31212  1.0000
  O  Te7       1.0  0.49190  0.85474  0.42221  1.0000
  O  Te8       1.0  0.36876  0.84551  0.13083  1.0000
  Mg  Mg3       1.0  0.49895  0.80675  0.45024  1.0000
  Mg  Mg4       1.0  0.36648  0.91561  0.99282  1.0000
  C  Sn9       1.0  0.20735  0.56115  0.18308  1.0000
  C   C77       1.0  0.23543  0.60498  0.18018  1.0000
  C  Sn10      1.0  0.22392  0.63889  0.22712  1.0000
  C  Sn11      1.0  0.18351  0.62882  0.27815  1.0000
  C   C78       1.0  0.15546  0.58502  0.28107  1.0000
  C  Sn12      1.0  0.16694  0.55108  0.23411  1.0000
  O  Te9       1.0  0.21952  0.52778  0.13564  1.0000
  O  Te10      1.0  0.25253  0.68245  0.22314  1.0000
  O  Te11      1.0  0.17136  0.66224  0.32561  1.0000
  O  Te12      1.0  0.13836  0.50755  0.23811  1.0000
  Mg  Mg5       1.0  0.22135  0.71642  0.29937  1.0000
  Mg  Mg6       1.0  0.16951  0.47357  0.16201  1.0000
  C  Sn13      1.0  0.62437  0.43453  0.19691  1.0000
  C   C79       1.0  0.58052  0.41854  0.20367  1.0000
  C  Sn14      1.0  0.55637  0.38241  0.25641  1.0000
  C  Sn15      1.0  0.57647  0.36186  0.30350  1.0000
  C   C80       1.0  0.62029  0.37785  0.29676  1.0000
  C  Sn16      1.0  0.64447  0.41397  0.24400  1.0000
  O  Te13      1.0  0.64789  0.47068  0.14381  1.0000
  O  Te14      1.0  0.51257  0.36701  0.26206  1.0000
  O  Te15      1.0  0.55290  0.32568  0.35662  1.0000
  O  Te16      1.0  0.68824  0.42938  0.23837  1.0000
  Mg  Mg7       1.0  0.49419  0.31681  0.34310  1.0000
  Mg  Mg8       1.0  0.70666  0.47959  0.15745  1.0000
  C  Sn17      1.0  0.56809  0.21241  0.26926  1.0000
  C   C81       1.0  0.61391  0.24559  0.31324  1.0000
  C  Sn18      1.0  0.64280  0.23069  0.31127  1.0000
  C  Sn19      1.0  0.62555  0.18159  0.26424  1.0000
  C   C82       1.0  0.57976  0.14844  0.22026  1.0000
  C  Sn20      1.0  0.55084  0.16332  0.22223  1.0000
  O  Te17      1.0  0.53982  0.22811  0.27210  1.0000
  O  Te18      1.0  0.68848  0.26453  0.35581  1.0000
  O  Te19      1.0  0.65387  0.16591  0.26143  1.0000
  O  Te20      1.0  0.50519  0.12950  0.17769  1.0000
  Mg  Mg9       1.0  0.71353  0.22559  0.33241  1.0000
  Mg  Mg10      1.0  0.48011  0.16839  0.20095  1.0000
  C  Sn21      1.0  0.81740  0.45289  0.32806  1.0000
  C   C83       1.0  0.84446  0.43544  0.31882  1.0000
  C  Sn22      1.0  0.82574  0.38629  0.26491  1.0000
  C  Sn23      1.0  0.77899  0.35391  0.21917  1.0000
  C   C84       1.0  0.75195  0.37136  0.22840  1.0000
  C  Sn24      1.0  0.77064  0.42050  0.28232  1.0000
  O  Te21      1.0  0.83683  0.50216  0.38229  1.0000
  O  Te22      1.0  0.85348  0.36970  0.25677  1.0000
  O  Te23      1.0  0.75956  0.30461  0.16492  1.0000
  O  Te24      1.0  0.74293  0.43709  0.29044  1.0000
  Mg  Mg11      1.0  0.81126  0.29941  0.17502  1.0000
  Mg  Mg12      1.0  0.78511  0.50737  0.37207  1.0000
  C  Sn25      1.0  0.36876  0.55058  0.67609  1.0000
  C   C85       1.0  0.41380  0.56910  0.69044  1.0000
  C  Sn26      1.0  0.44429  0.61869  0.75004  1.0000
  C  Sn27      1.0  0.42946  0.65044  0.79639  1.0000
  C   C86       1.0  0.38445  0.63193  0.78207  1.0000
  C  Sn28      1.0  0.35393  0.58234  0.72244  1.0000
  O  Te25      1.0  0.33886  0.50089  0.61620  1.0000
  O  Te26      1.0  0.48915  0.63634  0.76322  1.0000
  O  Te27      1.0  0.45940  0.70017  0.85631  1.0000
  O  Te28      1.0  0.30910  0.56468  0.70928  1.0000
  Mg  Mg13      1.0  0.51710  0.70686  0.85172  1.0000
  Mg  Mg14      1.0  0.28113  0.49418  0.62090  1.0000
  C  Sn29      1.0  0.36868  0.81324  0.74262  1.0000
  C   C87       1.0  0.41439  0.84572  0.77966  1.0000
  C  Sn30      1.0  0.44293  0.83014  0.77185  1.0000
  C  Sn31      1.0  0.42543  0.78106  0.72595  1.0000
  C   C88       1.0  0.37975  0.74861  0.68890  1.0000
  C  Sn32      1.0  0.35117  0.76416  0.69671  1.0000
  O  Te29      1.0  0.34076  0.82961  0.75122  1.0000
  O  Te30      1.0  0.48851  0.86328  0.80950  1.0000
  O  Te31      1.0  0.45339  0.76471  0.71737  1.0000
  O  Te32      1.0  0.30562  0.73104  0.65906  1.0000
  Mg  Mg15      1.0  0.51305  0.82358  0.77998  1.0000
  Mg  Mg16      1.0  0.28105  0.77069  0.68845  1.0000
  C  Sn33      1.0  0.21667  0.64792  0.79979  1.0000
  C   C89       1.0  0.24370  0.63038  0.78931  1.0000
  C  Sn34      1.0  0.22505  0.58151  0.73987  1.0000
  C  Sn35      1.0  0.17841  0.54950  0.69994  1.0000
  C   C90       1.0  0.15140  0.56704  0.71039  1.0000
  C  Sn36      1.0  0.17002  0.61591  0.75986  1.0000
  O  Te33      1.0  0.23603  0.69691  0.84949  1.0000
  O  Te34      1.0  0.25276  0.56483  0.73040  1.0000
  O  Te35      1.0  0.15906  0.50048  0.65022  1.0000
  O  Te36      1.0  0.14235  0.63259  0.76931  1.0000
  Mg  Mg17      1.0  0.21067  0.49501  0.65631  1.0000
  Mg  Mg18      1.0  0.18439  0.70239  0.84328  1.0000
  C  Sn37      1.0  0.62595  0.43617  0.68433  1.0000
  C   C91       1.0  0.58280  0.42178  0.69955  1.0000
  C  Sn38      1.0  0.55966  0.38793  0.76408  1.0000
  C  Sn39      1.0  0.58009  0.36807  0.81458  1.0000
  C   C92       1.0  0.62321  0.38246  0.79938  1.0000
  C  Sn40      1.0  0.64638  0.41631  0.73482  1.0000
  O  Te37      1.0  0.64847  0.47007  0.61948  1.0000
  O  Te38      1.0  0.51655  0.37409  0.77804  1.0000
  O  Te39      1.0  0.55753  0.33415  0.87945  1.0000
  O  Te40      1.0  0.68947  0.43015  0.72089  1.0000
  Mg  Mg19      1.0  0.49946  0.32678  0.87399  1.0000
  Mg  Mg20      1.0  0.70659  0.47747  0.62506  1.0000
  C  Sn41      1.0  0.56640  0.21516  0.76700  1.0000
  C   C93       1.0  0.61235  0.24772  0.81157  1.0000
  C  Sn42      1.0  0.64057  0.23196  0.80906  1.0000
  C  Sn43      1.0  0.62248  0.18262  0.76090  1.0000
  C   C94       1.0  0.57656  0.15010  0.71634  1.0000
  C  Sn44      1.0  0.54832  0.16583  0.71884  1.0000
  O  Te41      1.0  0.53882  0.23171  0.77040  1.0000
  O  Te42      1.0  0.68640  0.26518  0.85420  1.0000
  O  Te43      1.0  0.65011  0.16609  0.75754  1.0000
  O  Te44      1.0  0.50251  0.13263  0.67371  1.0000
  Mg  Mg21      1.0  0.71030  0.22517  0.82968  1.0000
  Mg  Mg22      1.0  0.47858  0.17260  0.69808  1.0000
  C  Sn45      1.0  0.81014  0.36493  0.71664  1.0000
  C   C95       1.0  0.83787  0.40798  0.70782  1.0000
  C  Sn46      1.0  0.82586  0.44126  0.74709  1.0000
  C  Sn47      1.0  0.78531  0.43132  0.79633  1.0000
  C   C96       1.0  0.75761  0.38830  0.80517  1.0000
  C  Sn48      1.0  0.76959  0.35499  0.76588  1.0000
  O  Te45      1.0  0.82281  0.33218  0.67682  1.0000
  O  Te46      1.0  0.85412  0.48405  0.73729  1.0000
  O  Te47      1.0  0.77265  0.46412  0.83616  1.0000
  O  Te48      1.0  0.74137  0.31224  0.77570  1.0000
  Mg  Mg23      1.0  0.82231  0.51736  0.80401  1.0000
  Mg  Mg24      1.0  0.77315  0.27891  0.70910  1.0000
