data_image0
_chemical_formula_structural       N6C24N6C12H8C2HO2C2HO2C2HO2C2HO2C2HO2C2HO2N6C24N6C24H16C2HO2C2HO2C2HO2C2HO2C2HO2C2HO2C2Sn2C2HTe2HMgC2Sn2C2HTe2HMgC2Sn2C2HTe2HMgC2Sn2C2HTe2HMgC2Sn2C2HTe2HMgC2Sn2C2HTe2HMg
_chemical_formula_sum              "N24 C132 H48 O24 Sn12 Te12 Mg6"
_cell_length_a       36.2075
_cell_length_b       36.2459
_cell_length_c       7.89837
_cell_angle_alpha    115.138
_cell_angle_beta     89.5578
_cell_angle_gamma    120.409

_symmetry_space_group_name_H-M    'P1'
_space_group_IT_number       1

loop_
  _space_group_symop_operation_xyz
  'x, y, z'

loop_
  _atom_site_type_symbol
  _atom_site_label
  _atom_site_symmetry_multiplicity
  _atom_site_fract_x
  _atom_site_fract_y
  _atom_site_fract_z
  _atom_site_occupancy
  N   N1        1.0  0.44510  0.55321  0.25546  1.0000
  N   N2        1.0  0.44856  0.88950  0.24334  1.0000
  N   N3        1.0  0.10867  0.55496  0.24882  1.0000
  N   N4        1.0  0.55284  0.44407  0.25416  1.0000
  N   N5        1.0  0.55383  0.10665  0.24111  1.0000
  N   N6        1.0  0.89088  0.44737  0.25666  1.0000
  C   C1        1.0  0.53871  0.53755  0.24498  1.0000
  C   C2        1.0  0.46304  0.00068  0.27224  1.0000
  C   C3        1.0  0.00016  0.46290  0.26728  1.0000
  C   C4        1.0  0.45922  0.45969  0.26529  1.0000
  C   C5        1.0  0.53966  0.99512  0.20948  1.0000
  C   C6        1.0  0.99939  0.53980  0.23896  1.0000
  C   C7        1.0  0.53647  0.49826  0.24770  1.0000
  C   C8        1.0  0.50105  0.03666  0.25517  1.0000
  C   C9        1.0  0.96239  0.46419  0.25984  1.0000
  C   C10       1.0  0.46143  0.49895  0.26209  1.0000
  C   C11       1.0  0.50162  0.95907  0.22635  1.0000
  C   C12       1.0  0.03726  0.53871  0.24754  1.0000
  C   C13       1.0  0.49829  0.46091  0.25839  1.0000
  C   C14       1.0  0.53795  0.03399  0.22460  1.0000
  C   C15       1.0  0.96187  0.50093  0.24458  1.0000
  C   C16       1.0  0.49965  0.53637  0.25237  1.0000
  C   C17       1.0  0.46482  0.96192  0.25746  1.0000
  C   C18       1.0  0.03754  0.50157  0.26017  1.0000
  C   C19       1.0  0.35422  0.70452  0.22303  1.0000
  C   C20       1.0  0.29066  0.64234  0.22707  1.0000
  C   C21       1.0  0.35365  0.64242  0.23348  1.0000
  C   C22       1.0  0.64557  0.29280  0.27072  1.0000
  C   C23       1.0  0.70847  0.35623  0.26945  1.0000
  C   C24       1.0  0.64459  0.35432  0.26203  1.0000
  N   N7        1.0  0.31092  0.68446  0.21956  1.0000
  N   N8        1.0  0.31044  0.61969  0.23279  1.0000
  N   N9        1.0  0.37704  0.68499  0.22975  1.0000
  N   N10       1.0  0.68895  0.31390  0.27530  1.0000
  N   N11       1.0  0.68784  0.37804  0.26392  1.0000
  N   N12       1.0  0.62189  0.31151  0.26420  1.0000
  C   C25       1.0  0.75549  0.37995  0.26654  1.0000
  C   C26       1.0  0.62064  0.37692  0.25715  1.0000
  C   C27       1.0  0.64254  0.42156  0.25564  1.0000
  C   C28       1.0  0.77808  0.35763  0.26124  1.0000
  C   C29       1.0  0.62067  0.44390  0.25581  1.0000
  C   C30       1.0  0.82232  0.37937  0.25715  1.0000
  C   C31       1.0  0.57559  0.42145  0.25615  1.0000
  C   C32       1.0  0.84543  0.42494  0.26162  1.0000
  C   C33       1.0  0.55317  0.37638  0.25593  1.0000
  C   C34       1.0  0.82314  0.44785  0.26870  1.0000
  C   C35       1.0  0.57574  0.35480  0.25745  1.0000
  C   C36       1.0  0.77867  0.42519  0.26975  1.0000
  H   H1        1.0  0.67724  0.43873  0.25394  1.0000
  H   H2        1.0  0.76035  0.32280  0.26084  1.0000
  H   H3        1.0  0.63811  0.47823  0.25365  1.0000
  H   H4        1.0  0.83901  0.36139  0.25242  1.0000
  H   H5        1.0  0.51856  0.35871  0.25658  1.0000
  H   H6        1.0  0.84031  0.48268  0.27049  1.0000
  H   H7        1.0  0.55872  0.32038  0.26029  1.0000
  H   H8        1.0  0.76126  0.44256  0.27302  1.0000
  C   C37       1.0  0.57155  0.48819  0.24142  1.0000
  C   C38       1.0  0.50800  0.42648  0.26678  1.0000
  H   H9        1.0  0.56845  0.56677  0.23728  1.0000
  O   O1        1.0  0.60870  0.51277  0.22683  1.0000
  O   O2        1.0  0.48286  0.39100  0.28675  1.0000
  C   C39       1.0  0.50994  0.08211  0.26198  1.0000
  C   C40       1.0  0.57171  0.07757  0.20899  1.0000
  H   H10       1.0  0.43429  0.00270  0.29533  1.0000
  O   O3        1.0  0.48448  0.09536  0.27918  1.0000
  O   O4        1.0  0.60684  0.08631  0.16972  1.0000
  C   C41       1.0  0.91813  0.43042  0.27301  1.0000
  C   C42       1.0  0.91646  0.49061  0.23737  1.0000
  H   H11       1.0  0.00032  0.43405  0.27842  1.0000
  O   O5        1.0  0.90785  0.39598  0.29969  1.0000
  O   O6        1.0  0.90378  0.51424  0.21704  1.0000
  C   C43       1.0  0.42619  0.50873  0.26553  1.0000
  C   C44       1.0  0.49003  0.57087  0.24413  1.0000
  H   H12       1.0  0.42939  0.43054  0.27282  1.0000
  O   O7        1.0  0.38869  0.48346  0.27528  1.0000
  O   O8        1.0  0.51544  0.60637  0.22473  1.0000
  C   C45       1.0  0.49237  0.91343  0.21968  1.0000
  C   C46       1.0  0.43100  0.91873  0.27452  1.0000
  H   H13       1.0  0.56841  0.99312  0.18650  1.0000
  O   O9        1.0  0.51723  0.89941  0.19995  1.0000
  O   O10       1.0  0.39596  0.91048  0.31408  1.0000
  C   C47       1.0  0.08190  0.57296  0.23835  1.0000
  C   C48       1.0  0.08258  0.51112  0.26322  1.0000
  H   H14       1.0  0.99915  0.56858  0.22779  1.0000
  O   O11       1.0  0.09284  0.60863  0.21979  1.0000
  O   O12       1.0  0.09450  0.48616  0.27604  1.0000
  N   N13       1.0  0.44779  0.55706  0.75183  1.0000
  N   N14       1.0  0.44517  0.89199  0.74554  1.0000
  N   N15       1.0  0.10968  0.55352  0.75164  1.0000
  N   N16       1.0  0.55568  0.44804  0.75051  1.0000
  N   N17       1.0  0.55006  0.10847  0.73803  1.0000
  N   N18       1.0  0.89165  0.44557  0.75655  1.0000
  C   C49       1.0  0.54153  0.54159  0.74107  1.0000
  C   C50       1.0  0.45938  0.00355  0.77719  1.0000
  C   C51       1.0  0.00096  0.46080  0.76728  1.0000
  C   C52       1.0  0.46232  0.46417  0.76488  1.0000
  C   C53       1.0  0.53569  0.99752  0.71095  1.0000
  C   C54       1.0  0.00043  0.53819  0.74246  1.0000
  C   C55       1.0  0.53936  0.50237  0.74442  1.0000
  C   C56       1.0  0.49727  0.03931  0.75816  1.0000
  C   C57       1.0  0.96318  0.46210  0.76002  1.0000
  C   C58       1.0  0.46448  0.50336  0.76149  1.0000
  C   C59       1.0  0.49779  0.96178  0.72955  1.0000
  C   C60       1.0  0.03820  0.53686  0.74970  1.0000
  C   C61       1.0  0.50129  0.46517  0.75605  1.0000
  C   C62       1.0  0.53395  0.03629  0.72574  1.0000
  C   C63       1.0  0.96294  0.49932  0.74786  1.0000
  C   C64       1.0  0.50251  0.54050  0.74904  1.0000
  C   C65       1.0  0.46105  0.96464  0.76180  1.0000
  C   C66       1.0  0.03855  0.49974  0.76216  1.0000
  C   C67       1.0  0.35407  0.70651  0.72218  1.0000
  C   C68       1.0  0.29157  0.64368  0.72861  1.0000
  C   C69       1.0  0.35549  0.64565  0.73540  1.0000
  C   C70       1.0  0.64530  0.29480  0.76980  1.0000
  C   C71       1.0  0.70921  0.35738  0.76979  1.0000
  C   C72       1.0  0.64630  0.35737  0.76200  1.0000
  N   N19       1.0  0.31077  0.68554  0.71932  1.0000
  N   N20       1.0  0.31234  0.62206  0.73497  1.0000
  N   N21       1.0  0.37791  0.68806  0.73020  1.0000
  N   N22       1.0  0.68873  0.31505  0.77579  1.0000
  N   N23       1.0  0.68953  0.38008  0.76340  1.0000
  N   N24       1.0  0.62264  0.31453  0.76361  1.0000
  C   C73       1.0  0.24481  0.62043  0.73548  1.0000
  C   C74       1.0  0.37959  0.62335  0.74271  1.0000
  C   C75       1.0  0.62063  0.24715  0.76583  1.0000
  C   C76       1.0  0.75622  0.38012  0.76725  1.0000
  C   C77       1.0  0.35718  0.57758  0.73480  1.0000
  C   C78       1.0  0.22200  0.64245  0.73947  1.0000
  C   C79       1.0  0.57403  0.21892  0.71646  1.0000
  C   C80       1.0  0.77912  0.35907  0.77729  1.0000
  C   C81       1.0  0.37915  0.55543  0.73585  1.0000
  C   C82       1.0  0.17792  0.62097  0.74605  1.0000
  C   C83       1.0  0.55045  0.17308  0.70489  1.0000
  C   C84       1.0  0.82339  0.38017  0.77333  1.0000
  C   C85       1.0  0.42488  0.57938  0.74806  1.0000
  C   C86       1.0  0.15513  0.57591  0.74595  1.0000
  C   C87       1.0  0.57355  0.15507  0.74630  1.0000
  C   C88       1.0  0.84608  0.42356  0.76075  1.0000
  C   C89       1.0  0.44781  0.62564  0.75865  1.0000
  C   C90       1.0  0.17778  0.55356  0.74272  1.0000
  C   C91       1.0  0.62026  0.18340  0.79913  1.0000
  C   C92       1.0  0.82333  0.44500  0.75129  1.0000
  C   C93       1.0  0.42512  0.64689  0.75409  1.0000
  C   C94       1.0  0.22205  0.57597  0.73855  1.0000
  C   C95       1.0  0.64332  0.22873  0.80675  1.0000
  C   C96       1.0  0.77903  0.42326  0.75444  1.0000
  H   H15       1.0  0.32193  0.55931  0.72681  1.0000
  H   H16       1.0  0.23937  0.67691  0.73713  1.0000
  H   H17       1.0  0.55634  0.23290  0.68299  1.0000
  H   H18       1.0  0.76176  0.32589  0.78937  1.0000
  H   H19       1.0  0.36116  0.52008  0.72949  1.0000
  H   H20       1.0  0.16117  0.63884  0.74952  1.0000
  H   H21       1.0  0.51450  0.15156  0.66427  1.0000
  H   H22       1.0  0.84045  0.36339  0.78150  1.0000
  H   H23       1.0  0.48295  0.64443  0.76805  1.0000
  H   H24       1.0  0.16094  0.51934  0.74595  1.0000
  H   H25       1.0  0.63834  0.17014  0.83436  1.0000
  H   H26       1.0  0.84012  0.47812  0.74007  1.0000
  H   H27       1.0  0.44257  0.68220  0.75864  1.0000
  H   H28       1.0  0.23967  0.55903  0.73845  1.0000
  H   H29       1.0  0.67942  0.25069  0.84657  1.0000
  H   H30       1.0  0.76134  0.43954  0.74549  1.0000
  C   C97       1.0  0.57443  0.49224  0.73849  1.0000
  C   C98       1.0  0.51087  0.43056  0.76360  1.0000
  H   H31       1.0  0.57129  0.57059  0.73238  1.0000
  O   O13       1.0  0.61168  0.51697  0.72518  1.0000
  O   O14       1.0  0.48554  0.39509  0.78337  1.0000
  C   C99       1.0  0.50634  0.08465  0.76267  1.0000
  C   C100      1.0  0.56755  0.07921  0.70659  1.0000
  H   H32       1.0  0.43081  0.00581  0.80194  1.0000
  O   O15       1.0  0.48131  0.09843  0.78080  1.0000
  O   O16       1.0  0.60239  0.08719  0.66504  1.0000
  C   C101      1.0  0.91858  0.42797  0.77015  1.0000
  C   C102      1.0  0.91776  0.48950  0.74278  1.0000
  H   H33       1.0  0.00104  0.43173  0.77659  1.0000
  O   O17       1.0  0.90776  0.39279  0.79227  1.0000
  O   O18       1.0  0.90572  0.51423  0.72844  1.0000
  C   C103      1.0  0.42940  0.51344  0.76791  1.0000
  C   C104      1.0  0.49259  0.57463  0.73874  1.0000
  H   H34       1.0  0.43269  0.43512  0.77406  1.0000
  O   O19       1.0  0.39247  0.48921  0.78505  1.0000
  O   O20       1.0  0.51748  0.60981  0.71670  1.0000
  C   C105      1.0  0.48890  0.91631  0.72232  1.0000
  C   C106      1.0  0.42734  0.92113  0.77786  1.0000
  H   H35       1.0  0.56430  0.99529  0.68638  1.0000
  O   O21       1.0  0.51428  0.90293  0.70236  1.0000
  O   O22       1.0  0.39220  0.91247  0.81683  1.0000
  C   C107      1.0  0.08256  0.57083  0.73804  1.0000
  C   C108      1.0  0.08378  0.50960  0.76596  1.0000
  H   H36       1.0  0.00026  0.56714  0.73236  1.0000
  O   O23       1.0  0.09298  0.60572  0.71422  1.0000
  O   O24       1.0  0.09606  0.48495  0.77909  1.0000
  C   C109      1.0  0.36756  0.80294  0.17127  1.0000
  C   C110      1.0  0.41334  0.83774  0.22873  1.0000
  C  Sn1       1.0  0.44289  0.82778  0.27902  1.0000
  C  Sn2       1.0  0.42620  0.78211  0.27145  1.0000
  C   C111      1.0  0.38035  0.74753  0.21364  1.0000
  C   C112      1.0  0.35108  0.75788  0.16369  1.0000
  H   H37       1.0  0.34490  0.81093  0.13252  1.0000
  O  Te1       1.0  0.48852  0.86297  0.33618  1.0000
  O  Te2       1.0  0.45500  0.77120  0.32086  1.0000
  H   H38       1.0  0.31564  0.73091  0.11908  1.0000
  Mg  Mg1       1.0  0.51444  0.83101  0.38968  1.0000
  C   C113      1.0  0.18757  0.63167  0.23843  1.0000
  C   C114      1.0  0.15833  0.58701  0.23335  1.0000
  C  Sn3       1.0  0.17336  0.55850  0.23593  1.0000
  C  Sn4       1.0  0.21852  0.57510  0.24380  1.0000
  C   C115      1.0  0.24751  0.61985  0.24897  1.0000
  C   C116      1.0  0.23212  0.64808  0.24626  1.0000
  H   H39       1.0  0.17566  0.65353  0.23644  1.0000
  O  Te3       1.0  0.14370  0.51397  0.23071  1.0000
  O  Te4       1.0  0.23442  0.54735  0.24661  1.0000
  H   H40       1.0  0.25477  0.68267  0.25032  1.0000
  Mg  Mg2       1.0  0.18118  0.48920  0.23722  1.0000
  C   C117      1.0  0.35308  0.78147  0.68336  1.0000
  C   C118      1.0  0.37012  0.75601  0.70262  1.0000
  C  Sn5       1.0  0.41597  0.77767  0.74930  1.0000
  C  Sn6       1.0  0.44521  0.82571  0.77718  1.0000
  C   C119      1.0  0.42782  0.85089  0.75772  1.0000
  C   C120      1.0  0.38189  0.82887  0.71091  1.0000
  H   H41       1.0  0.31754  0.76445  0.64725  1.0000
  O  Te5       1.0  0.43244  0.75171  0.76792  1.0000
  O  Te6       1.0  0.49117  0.84823  0.82400  1.0000
  H   H42       1.0  0.36871  0.84860  0.69613  1.0000
  Mg  Mg3       1.0  0.49760  0.79799  0.83344  1.0000
  C   C121      1.0  0.56894  0.36095  0.77481  1.0000
  C   C122      1.0  0.61128  0.37340  0.75162  1.0000
  C  Sn7       1.0  0.63914  0.41536  0.73583  1.0000
  C  Sn8       1.0  0.62424  0.44535  0.74350  1.0000
  C   C123      1.0  0.58184  0.43260  0.76688  1.0000
  C   C124      1.0  0.55423  0.39052  0.78247  1.0000
  H   H43       1.0  0.54759  0.32842  0.78698  1.0000
  O  Te7       1.0  0.68133  0.42724  0.71264  1.0000
  O  Te8       1.0  0.65141  0.48749  0.72816  1.0000
  H   H44       1.0  0.52146  0.38091  0.80056  1.0000
  Mg  Mg4       1.0  0.70614  0.48835  0.69826  1.0000
  C   C125      1.0  0.43195  0.64064  0.23315  1.0000
  C   C126      1.0  0.38748  0.62402  0.22725  1.0000
  C  Sn9       1.0  0.35973  0.58211  0.24348  1.0000
  C  Sn10      1.0  0.37691  0.55645  0.26607  1.0000
  C   C127      1.0  0.42146  0.57339  0.27194  1.0000
  C   C128      1.0  0.44893  0.61536  0.25551  1.0000
  H   H45       1.0  0.45321  0.67313  0.22054  1.0000
  O  Te9       1.0  0.31538  0.56600  0.23722  1.0000
  O  Te10      1.0  0.34992  0.51446  0.28270  1.0000
  H   H46       1.0  0.48337  0.62824  0.26021  1.0000
  Mg  Mg5       1.0  0.29173  0.50691  0.26586  1.0000
  C   C129      1.0  0.56478  0.20427  0.20375  1.0000
  C   C130      1.0  0.61036  0.24015  0.26648  1.0000
  C  Sn11      1.0  0.64051  0.23090  0.31674  1.0000
  C  Sn12      1.0  0.62463  0.18483  0.30377  1.0000
  C   C131      1.0  0.57897  0.14916  0.24072  1.0000
  C   C132      1.0  0.54909  0.15881  0.19084  1.0000
  H   H47       1.0  0.54167  0.21172  0.16505  1.0000
  O  Te11      1.0  0.68594  0.26716  0.37920  1.0000
  O  Te12      1.0  0.65403  0.17460  0.35304  1.0000
  H   H48       1.0  0.51381  0.13101  0.14215  1.0000
  Mg  Mg6       1.0  0.71289  0.23581  0.43023  1.0000
