data_image0
_chemical_formula_structural       H120C186N24H144C222N24C2Sn2C2HTe2HMgC2Sn2C2HTe2HMgC2Sn2C2HTe2HMgC2Sn2C2HTe2HMgC2Sn2C2HTe2HMgC2Sn2C2HTe2HMgC2Sn2C2HTe2HMgC2Sn2C2HTe2HMgC2Sn2C2HTe2HMgC2Sn2C2HTe2HMgC2Sn2C2HTe2HMgC2Sn2C2HTe2HMgC2Sn2C2HTe2HMgC2Sn2C2HTe2HMgC2Sn2C2HTe2HMgC2Sn2C2HTe2HMgC2Sn2C2HTe2HMgC2Sn2C2HTe2HMgC2Sn2C2HTe2HMgC2Sn2C2HTe2HMgC2Sn2C2HTe2HMgC2Sn2C2HTe2HMgC2Sn2C2HTe2HMgC2Sn2C2HTe2HMg
_chemical_formula_sum              "H312 C504 N48 Sn48 Te48 Mg24"
_cell_length_a       64.3588
_cell_length_b       64.4356
_cell_length_c       8.12711
_cell_angle_alpha    107.803
_cell_angle_beta     54.7522
_cell_angle_gamma    119.95

_symmetry_space_group_name_H-M    'P1'
_space_group_IT_number       1

loop_
  _space_group_symop_operation_xyz
  'x, y, z'

loop_
  _atom_site_type_symbol
  _atom_site_label
  _atom_site_symmetry_multiplicity
  _atom_site_fract_x
  _atom_site_fract_y
  _atom_site_fract_z
  _atom_site_occupancy
  H   H1        1.0  0.19247  0.23662  0.88675  1.0000
  H   H2        1.0  0.13966  0.16114  0.94343  1.0000
  H   H3        1.0  0.21535  0.18910  0.95530  1.0000
  H   H4        1.0  0.14998  0.22120  0.87991  1.0000
  H   H5        1.0  0.24457  0.22837  0.92325  1.0000
  H   H6        1.0  0.28208  0.25550  0.89192  1.0000
  H   H7        1.0  0.32169  0.29104  0.89276  1.0000
  H   H8        1.0  0.28318  0.33571  0.98730  1.0000
  H   H9        1.0  0.24346  0.29955  0.98097  1.0000
  H   H10       1.0  0.34839  0.32139  0.97720  1.0000
  H   H11       1.0  0.38641  0.35909  0.98914  1.0000
  H   H12       1.0  0.35704  0.39901  0.89649  1.0000
  H   H13       1.0  0.31974  0.36212  0.88225  1.0000
  H   H14       1.0  0.12601  0.13302  0.11602  1.0000
  H   H15       1.0  0.11629  0.09462  0.20866  1.0000
  H   H16       1.0  0.15423  0.08818  0.16257  1.0000
  H   H17       1.0  0.21334  0.15639  0.88412  1.0000
  H   H18       1.0  0.19270  0.08086  0.96488  1.0000
  H   H19       1.0  0.26953  0.11286  0.96290  1.0000
  H   H20       1.0  0.23314  0.15759  0.02665  1.0000
  H   H21       1.0  0.21266  0.05585  0.92278  1.0000
  H   H22       1.0  0.29549  0.15611  0.95008  1.0000
  H   H23       1.0  0.37587  0.42499  0.05100  1.0000
  H   H24       1.0  0.43893  0.42586  0.97684  1.0000
  H   H25       1.0  0.47887  0.50275  0.02867  1.0000
  H   H26       1.0  0.40033  0.46925  0.05310  1.0000
  H   H27       1.0  0.46174  0.52702  0.03653  1.0000
  H   H28       1.0  0.45872  0.42677  0.10794  1.0000
  H   H29       1.0  0.54606  0.45028  0.87353  1.0000
  H   H30       1.0  0.55567  0.48870  0.78306  1.0000
  H   H31       1.0  0.51755  0.49563  0.83791  1.0000
  H   H32       1.0  0.45711  0.39382  0.02940  1.0000
  H   H33       1.0  0.48095  0.34692  0.09512  1.0000
  H   H34       1.0  0.53175  0.42287  0.05810  1.0000
  H   H35       1.0  0.42974  0.35303  0.03878  1.0000
  H   H36       1.0  0.52398  0.36194  0.08339  1.0000
  H   H37       1.0  0.25916  0.91507  0.08146  1.0000
  H   H38       1.0  0.20061  0.86086  0.04114  1.0000
  H   H39       1.0  0.23092  0.81214  0.00791  1.0000
  H   H40       1.0  0.27423  0.88749  0.07288  1.0000
  H   H41       1.0  0.26828  0.82463  0.03933  1.0000
  H   H42       1.0  0.17121  0.83206  0.98558  1.0000
  H   H43       1.0  0.13115  0.79617  0.98382  1.0000
  H   H44       1.0  0.12433  0.75588  0.00625  1.0000
  H   H45       1.0  0.19879  0.78684  0.03348  1.0000
  H   H46       1.0  0.12071  0.72383  0.01859  1.0000
  H   H47       1.0  0.15234  0.68089  0.04544  1.0000
  H   H48       1.0  0.19620  0.75735  0.04461  1.0000
  H   H49       1.0  0.09803  0.68206  0.99562  1.0000
  H   H50       1.0  0.19588  0.69877  0.03026  1.0000
  H   H51       1.0  0.21700  0.69524  0.12701  1.0000
  H   H52       1.0  0.25547  0.69292  0.10233  1.0000
  H   H53       1.0  0.30681  0.76698  0.93981  1.0000
  H   H54       1.0  0.26726  0.76944  0.97354  1.0000
  H   H55       1.0  0.36013  0.81023  0.06587  1.0000
  H   H56       1.0  0.40083  0.80941  0.02986  1.0000
  H   H57       1.0  0.44883  0.88353  0.87244  1.0000
  H   H58       1.0  0.40924  0.88429  0.90200  1.0000
  H   H59       1.0  0.47068  0.88147  0.97208  1.0000
  H   H60       1.0  0.39852  0.75360  0.94822  1.0000
  H   H61       1.0  0.39195  0.69178  0.95480  1.0000
  H   H62       1.0  0.46599  0.72087  0.98541  1.0000
  H   H63       1.0  0.43701  0.76775  0.97067  1.0000
  H   H64       1.0  0.47093  0.82379  0.96110  1.0000
  H   H65       1.0  0.54708  0.85686  0.97708  1.0000
  H   H66       1.0  0.51530  0.90014  0.95650  1.0000
  H   H67       1.0  0.49469  0.74909  0.03186  1.0000
  H   H68       1.0  0.53368  0.78497  0.04694  1.0000
  H   H69       1.0  0.54041  0.82527  0.02426  1.0000
  H   H70       1.0  0.47007  0.79389  0.94487  1.0000
  H   H71       1.0  0.95968  0.48306  0.98794  1.0000
  H   H72       1.0  0.90445  0.48945  0.99111  1.0000
  H   H73       1.0  0.85503  0.41282  0.01400  1.0000
  H   H74       1.0  0.93202  0.44141  0.99865  1.0000
  H   H75       1.0  0.87165  0.49375  0.04663  1.0000
  H   H76       1.0  0.83503  0.49770  0.05445  1.0000
  H   H77       1.0  0.79728  0.46242  0.01814  1.0000
  H   H78       1.0  0.83385  0.41786  0.95299  1.0000
  H   H79       1.0  0.76648  0.43253  0.99921  1.0000
  H   H80       1.0  0.73281  0.35678  0.88809  1.0000
  H   H81       1.0  0.80728  0.39044  0.91743  1.0000
  H   H82       1.0  0.75586  0.33315  0.84415  1.0000
  H   H83       1.0  0.86857  0.38609  0.02698  1.0000
  H   H84       1.0  0.74494  0.30189  0.92856  1.0000
  H   H85       1.0  0.74219  0.26389  0.94776  1.0000
  H   H86       1.0  0.81788  0.30003  0.96966  1.0000
  H   H87       1.0  0.82180  0.33858  0.93210  1.0000
  H   H88       1.0  0.86873  0.35213  0.95401  1.0000
  H   H89       1.0  0.86575  0.31335  0.96454  1.0000
  H   H90       1.0  0.92898  0.34800  0.12602  1.0000
  H   H91       1.0  0.93376  0.38729  0.09518  1.0000
  H   H92       1.0  0.85374  0.28299  0.08662  1.0000
  H   H93       1.0  0.85155  0.24368  0.08334  1.0000
  H   H94       1.0  0.93155  0.27813  0.03844  1.0000
  H   H95       1.0  0.93447  0.31707  0.03298  1.0000
  H   H96       1.0  0.80080  0.19272  0.00750  1.0000
  H   H97       1.0  0.91945  0.24529  0.11970  1.0000
  H   H98       1.0  0.73914  0.13797  0.98905  1.0000
  H   H99       1.0  0.76452  0.08916  0.01451  1.0000
  H   H100      1.0  0.81420  0.16560  0.99876  1.0000
  H   H101      1.0  0.86594  0.18851  0.04236  1.0000
  H   H102      1.0  0.89605  0.14391  0.07577  1.0000
  H   H103      1.0  0.93749  0.22034  0.10729  1.0000
  H   H104      1.0  0.83355  0.15998  0.07392  1.0000
  H   H105      1.0  0.79973  0.08515  0.92735  1.0000
  H   H106      1.0  0.83719  0.08125  0.90889  1.0000
  H   H107      1.0  0.87351  0.11624  0.96334  1.0000
  H   H108      1.0  0.71308  0.09545  0.97099  1.0000
  H   H109      1.0  0.57233  0.89732  0.96504  1.0000
  H   H110      1.0  0.93638  0.16113  0.10239  1.0000
  H   H111      1.0  0.41018  0.66516  0.94034  1.0000
  H   H112      1.0  0.61863  0.34889  0.02940  1.0000
  H   H113      1.0  0.65802  0.34557  0.98762  1.0000
  H   H114      1.0  0.70465  0.42181  0.92757  1.0000
  H   H115      1.0  0.66553  0.42542  0.97650  1.0000
  H   H116      1.0  0.72414  0.41491  0.02117  1.0000
  H   H117      1.0  0.67665  0.98882  0.93901  1.0000
  H   H118      1.0  0.71567  0.02589  0.94734  1.0000
  H   H119      1.0  0.67358  0.06767  0.05519  1.0000
  H   H120      1.0  0.63453  0.03119  0.05465  1.0000
  C   C1        1.0  0.18799  0.21846  0.90343  1.0000
  C   C2        1.0  0.16397  0.19892  0.91264  1.0000
  C   C3        1.0  0.15868  0.17567  0.93571  1.0000
  C   C4        1.0  0.17692  0.17155  0.95007  1.0000
  C   C5        1.0  0.20115  0.19138  0.93707  1.0000
  C   C6        1.0  0.20676  0.21470  0.91606  1.0000
  C   C7        1.0  0.14384  0.20272  0.90642  1.0000
  C   C8        1.0  0.23127  0.23414  0.92092  1.0000
  C   C9        1.0  0.25967  0.27501  0.93508  1.0000
  C   C10       1.0  0.28205  0.27298  0.91246  1.0000
  C   C11       1.0  0.30470  0.29331  0.91257  1.0000
  C   C12       1.0  0.30629  0.31661  0.93516  1.0000
  C   C13       1.0  0.28343  0.31828  0.96295  1.0000
  C   C14       1.0  0.26085  0.29810  0.96197  1.0000
  C   C15       1.0  0.33002  0.33847  0.93578  1.0000
  C   C16       1.0  0.34997  0.33825  0.95911  1.0000
  C   C17       1.0  0.37152  0.35944  0.96625  1.0000
  C   C18       1.0  0.37396  0.38189  0.95205  1.0000
  C   C19       1.0  0.35467  0.38216  0.92182  1.0000
  C   C20       1.0  0.33340  0.36107  0.91407  1.0000
  C   C21       1.0  0.17052  0.14778  0.99461  1.0000
  C   C22       1.0  0.14308  0.12983  0.08410  1.0000
  C   C23       1.0  0.13762  0.10832  0.13835  1.0000
  C   C24       1.0  0.15903  0.10449  0.10974  1.0000
  C   C25       1.0  0.18663  0.12214  0.02113  1.0000
  C   C26       1.0  0.19184  0.14323  0.96095  1.0000
  C   C27       1.0  0.20975  0.11948  0.99762  1.0000
  C   C28       1.0  0.20959  0.09688  0.97516  1.0000
  C   C29       1.0  0.23077  0.09443  0.96520  1.0000
  C   C30       1.0  0.25323  0.11500  0.97066  1.0000
  C   C31       1.0  0.25402  0.13762  0.98939  1.0000
  C   C32       1.0  0.23218  0.13969  0.00522  1.0000
  C   C33       1.0  0.22875  0.07055  0.95385  1.0000
  C   C34       1.0  0.27720  0.15887  0.99749  1.0000
  C   C35       1.0  0.39424  0.42300  0.01222  1.0000
  C   C36       1.0  0.41706  0.44503  0.01893  1.0000
  C   C37       1.0  0.43952  0.44360  0.99854  1.0000
  C   C38       1.0  0.46196  0.46406  0.00278  1.0000
  C   C39       1.0  0.46183  0.48645  0.02325  1.0000
  C   C40       1.0  0.43992  0.48839  0.03967  1.0000
  C   C41       1.0  0.41715  0.46749  0.04080  1.0000
  C   C42       1.0  0.44248  0.51233  0.04467  1.0000
  C   C43       1.0  0.48522  0.46155  0.97796  1.0000
  C   C44       1.0  0.48008  0.44022  0.03400  1.0000
  C   C45       1.0  0.50143  0.43561  0.99859  1.0000
  C   C46       1.0  0.52887  0.45355  0.90853  1.0000
  C   C47       1.0  0.53427  0.47517  0.85645  1.0000
  C   C48       1.0  0.51276  0.47926  0.88965  1.0000
  C   C49       1.0  0.49503  0.41176  0.04223  1.0000
  C   C50       1.0  0.47120  0.39167  0.04985  1.0000
  C   C51       1.0  0.46600  0.36845  0.06961  1.0000
  C   C52       1.0  0.48482  0.36506  0.08406  1.0000
  C   C53       1.0  0.50827  0.38479  0.08103  1.0000
  C   C54       1.0  0.51314  0.40806  0.06160  1.0000
  C   C55       1.0  0.44221  0.34825  0.06008  1.0000
  C   C56       1.0  0.52850  0.38082  0.08382  1.0000
  C   C57       1.0  0.24164  0.90109  0.06254  1.0000
  C   C58       1.0  0.23754  0.87648  0.05690  1.0000
  C   C59       1.0  0.21514  0.85682  0.04072  1.0000
  C   C60       1.0  0.21198  0.83325  0.02374  1.0000
  C   C61       1.0  0.23208  0.82999  0.02367  1.0000
  C   C62       1.0  0.25423  0.84917  0.04254  1.0000
  C   C63       1.0  0.25691  0.87261  0.05943  1.0000
  C   C64       1.0  0.27390  0.84384  0.04103  1.0000
  C   C65       1.0  0.18819  0.81222  0.01213  1.0000
  C   C66       1.0  0.16866  0.81450  0.99779  1.0000
  C   C67       1.0  0.14598  0.79417  0.99643  1.0000
  C   C68       1.0  0.14219  0.77126  0.00864  1.0000
  C   C69       1.0  0.16143  0.76822  0.02092  1.0000
  C   C70       1.0  0.18405  0.78897  0.02186  1.0000
  C   C71       1.0  0.15851  0.74429  0.03380  1.0000
  C   C72       1.0  0.13631  0.72302  0.03007  1.0000
  C   C73       1.0  0.13397  0.70035  0.03525  1.0000
  C   C74       1.0  0.15412  0.69861  0.04524  1.0000
  C   C75       1.0  0.17631  0.71939  0.04970  1.0000
  C   C76       1.0  0.17821  0.74195  0.04475  1.0000
  C   C77       1.0  0.11124  0.67891  0.02142  1.0000
  C   C78       1.0  0.19821  0.71725  0.04537  1.0000
  C   C79       1.0  0.23971  0.73251  0.04443  1.0000
  C   C80       1.0  0.23684  0.71092  0.08100  1.0000
  C   C81       1.0  0.25873  0.70960  0.06609  1.0000
  C   C82       1.0  0.28469  0.72957  0.01344  1.0000
  C   C83       1.0  0.28710  0.75120  0.98270  1.0000
  C   C84       1.0  0.26508  0.75272  0.00011  1.0000
  C   C85       1.0  0.38106  0.84770  0.99486  1.0000
  C   C86       1.0  0.37950  0.82639  0.02402  1.0000
  C   C87       1.0  0.40211  0.82578  0.00492  1.0000
  C   C88       1.0  0.42718  0.84649  0.95926  1.0000
  C   C89       1.0  0.42919  0.86760  0.92214  1.0000
  C   C90       1.0  0.40670  0.86807  0.93976  1.0000
  C   C91       1.0  0.46900  0.86324  0.95697  1.0000
  C   C92       1.0  0.49110  0.86164  0.95412  1.0000
  C   C93       1.0  0.39301  0.73462  0.95507  1.0000
  C   C94       1.0  0.41280  0.73027  0.96055  1.0000
  C   C95       1.0  0.40962  0.70707  0.96124  1.0000
  C   C96       1.0  0.42884  0.70412  0.97276  1.0000
  C   C97       1.0  0.45155  0.72430  0.97951  1.0000
  C   C98       1.0  0.45531  0.74761  0.97805  1.0000
  C   C99       1.0  0.43541  0.75009  0.96938  1.0000
  C   C100      1.0  0.48907  0.83911  0.95979  1.0000
  C   C101      1.0  0.50872  0.83660  0.96913  1.0000
  C   C102      1.0  0.53119  0.85770  0.96950  1.0000
  C   C103      1.0  0.53347  0.88045  0.96706  1.0000
  C   C104      1.0  0.51324  0.88241  0.95951  1.0000
  C   C105      1.0  0.47902  0.76880  0.98845  1.0000
  C   C106      1.0  0.50539  0.81265  0.98379  1.0000
  C   C107      1.0  0.49752  0.76658  0.01571  1.0000
  C   C108      1.0  0.51959  0.78693  0.02521  1.0000
  C   C109      1.0  0.52349  0.80977  0.01093  1.0000
  C   C110      1.0  0.48362  0.79193  0.97180  1.0000
  C   C111      1.0  0.94495  0.48794  0.99629  1.0000
  C   C112      1.0  0.92051  0.46768  0.99527  1.0000
  C   C113      1.0  0.90047  0.47107  0.99553  1.0000
  C   C114      1.0  0.87678  0.45166  0.99853  1.0000
  C   C115      1.0  0.87355  0.42848  0.00400  1.0000
  C   C116      1.0  0.89327  0.42467  0.00252  1.0000
  C   C117      1.0  0.91700  0.44450  0.99678  1.0000
  C   C118      1.0  0.85534  0.45511  0.00163  1.0000
  C   C119      1.0  0.85550  0.47781  0.02759  1.0000
  C   C120      1.0  0.83458  0.48002  0.03389  1.0000
  C   C121      1.0  0.81312  0.45998  0.01393  1.0000
  C   C122      1.0  0.81254  0.43706  0.98400  1.0000
  C   C123      1.0  0.83384  0.43536  0.97857  1.0000
  C   C124      1.0  0.79070  0.41512  0.95699  1.0000
  C   C125      1.0  0.76828  0.41567  0.96893  1.0000
  C   C126      1.0  0.74758  0.39492  0.94383  1.0000
  C   C127      1.0  0.74907  0.37278  0.90585  1.0000
  C   C128      1.0  0.77071  0.37163  0.89923  1.0000
  C   C129      1.0  0.79127  0.39270  0.92291  1.0000
  C   C130      1.0  0.77091  0.34848  0.88145  1.0000
  C   C131      1.0  0.88830  0.40033  0.01507  1.0000
  C   C132      1.0  0.78414  0.32342  0.92336  1.0000
  C   C133      1.0  0.90148  0.37285  0.02623  1.0000
  C   C134      1.0  0.76146  0.30178  0.93269  1.0000
  C   C135      1.0  0.75971  0.28003  0.94724  1.0000
  C   C136      1.0  0.77983  0.27839  0.95956  1.0000
  C   C137      1.0  0.80223  0.30011  0.95404  1.0000
  C   C138      1.0  0.80446  0.32201  0.93455  1.0000
  C   C139      1.0  0.88199  0.35149  0.99246  1.0000
  C   C140      1.0  0.88014  0.32936  0.00042  1.0000
  C   C141      1.0  0.89679  0.32718  0.04850  1.0000
  C   C142      1.0  0.91608  0.34863  0.08377  1.0000
  C   C143      1.0  0.91870  0.37086  0.06905  1.0000
  C   C144      1.0  0.89443  0.30357  0.05869  1.0000
  C   C145      1.0  0.87112  0.28224  0.07371  1.0000
  C   C146      1.0  0.86964  0.25993  0.07268  1.0000
  C   C147      1.0  0.89104  0.25766  0.06163  1.0000
  C   C148      1.0  0.91433  0.27894  0.04890  1.0000
  C   C149      1.0  0.91592  0.30118  0.04682  1.0000
  C   C150      1.0  0.78263  0.17912  0.99434  1.0000
  C   C151      1.0  0.77687  0.15429  0.00004  1.0000
  C   C152      1.0  0.90316  0.23066  0.09049  1.0000
  C   C153      1.0  0.90079  0.20669  0.08437  1.0000
  C   C154      1.0  0.75354  0.13467  0.99724  1.0000
  C   C155      1.0  0.74960  0.11134  0.00086  1.0000
  C   C156      1.0  0.76882  0.10761  0.00871  1.0000
  C   C157      1.0  0.79249  0.12681  0.00701  1.0000
  C   C158      1.0  0.79593  0.15007  0.00359  1.0000
  C   C159      1.0  0.87992  0.18588  0.06045  1.0000
  C   C160      1.0  0.87791  0.16295  0.05339  1.0000
  C   C161      1.0  0.89741  0.16135  0.07334  1.0000
  C   C162      1.0  0.91908  0.18190  0.08875  1.0000
  C   C163      1.0  0.92057  0.20460  0.09524  1.0000
  C   C164      1.0  0.81411  0.12326  0.99948  1.0000
  C   C165      1.0  0.85650  0.14119  0.02054  1.0000
  C   C166      1.0  0.83475  0.14282  0.03272  1.0000
  C   C167      1.0  0.81517  0.10082  0.95571  1.0000
  C   C168      1.0  0.83647  0.09867  0.94444  1.0000
  C   C169      1.0  0.85708  0.11853  0.97491  1.0000
  C   C170      1.0  0.72598  0.09092  0.98950  1.0000
  C   C171      1.0  0.55700  0.90138  0.97388  1.0000
  C   C172      1.0  0.94036  0.17946  0.09015  1.0000
  C   C173      1.0  0.42549  0.68014  0.97761  1.0000
  C   C174      1.0  0.63846  0.38752  0.00879  1.0000
  C   C175      1.0  0.63714  0.36510  0.01150  1.0000
  C   C176      1.0  0.65929  0.36300  0.98627  1.0000
  C   C177      1.0  0.68395  0.38329  0.95968  1.0000
  C   C178      1.0  0.68564  0.40574  0.95382  1.0000
  C   C179      1.0  0.66342  0.40770  0.97938  1.0000
  C   C180      1.0  0.72444  0.39713  0.96785  1.0000
  C   C181      1.0  0.65247  0.00689  0.99243  1.0000
  C   C182      1.0  0.67575  0.00600  0.96442  1.0000
  C   C183      1.0  0.69795  0.02674  0.96630  1.0000
  C   C184      1.0  0.69825  0.04951  0.99292  1.0000
  C   C185      1.0  0.67478  0.05053  0.02506  1.0000
  C   C186      1.0  0.65255  0.02975  0.02477  1.0000
  N   N1        1.0  0.23621  0.25637  0.92873  1.0000
  N   N2        1.0  0.12042  0.18522  0.93269  1.0000
  N   N3        1.0  0.27623  0.17959  0.05510  1.0000
  N   N4        1.0  0.24453  0.06716  0.98361  1.0000
  N   N5        1.0  0.39575  0.40250  0.96447  1.0000
  N   N6        1.0  0.43685  0.32643  0.07335  1.0000
  N   N7        1.0  0.22597  0.90562  0.03991  1.0000
  N   N8        1.0  0.29597  0.86050  0.04279  1.0000
  N   N9        1.0  0.21906  0.73563  0.05235  1.0000
  N   N10       1.0  0.37071  0.71746  0.95935  1.0000
  N   N11       1.0  0.44851  0.84434  0.94926  1.0000
  N   N12       1.0  0.10744  0.65768  0.03473  1.0000
  N   N13       1.0  0.94875  0.50986  0.00573  1.0000
  N   N14       1.0  0.78697  0.34625  0.91644  1.0000
  N   N15       1.0  0.90586  0.39619  0.01720  1.0000
  N   N16       1.0  0.76707  0.18444  0.97744  1.0000
  N   N17       1.0  0.88731  0.23428  0.06302  1.0000
  N   N18       1.0  0.72130  0.06915  0.99699  1.0000
  N   N19       1.0  0.55970  0.92302  0.98767  1.0000
  N   N20       1.0  0.96263  0.19783  0.07530  1.0000
  N   N21       1.0  0.42414  0.51592  0.04862  1.0000
  N   N22       1.0  0.44014  0.67705  0.02133  1.0000
  N   N23       1.0  0.55066  0.39843  0.07848  1.0000
  N   N24       1.0  0.70530  0.37957  0.93533  1.0000
  H   H121      1.0  0.20576  0.23353  0.38170  1.0000
  H   H122      1.0  0.15513  0.15756  0.42858  1.0000
  H   H123      1.0  0.22937  0.18785  0.46530  1.0000
  H   H124      1.0  0.16448  0.21814  0.37445  1.0000
  H   H125      1.0  0.25718  0.22888  0.44469  1.0000
  H   H126      1.0  0.28955  0.25738  0.46574  1.0000
  H   H127      1.0  0.32701  0.29422  0.47852  1.0000
  H   H128      1.0  0.29842  0.33501  0.38338  1.0000
  H   H129      1.0  0.26016  0.29744  0.37429  1.0000
  H   H130      1.0  0.36312  0.32351  0.40740  1.0000
  H   H131      1.0  0.40131  0.36146  0.41418  1.0000
  H   H132      1.0  0.35948  0.40095  0.47642  1.0000
  H   H133      1.0  0.32144  0.36381  0.47589  1.0000
  H   H134      1.0  0.14152  0.12967  0.59713  1.0000
  H   H135      1.0  0.13258  0.09086  0.67536  1.0000
  H   H136      1.0  0.17063  0.08451  0.62761  1.0000
  H   H137      1.0  0.22828  0.15520  0.39208  1.0000
  H   H138      1.0  0.20925  0.07847  0.44944  1.0000
  H   H139      1.0  0.28530  0.11171  0.46013  1.0000
  H   H140      1.0  0.24762  0.15521  0.52337  1.0000
  H   H141      1.0  0.22601  0.05394  0.44609  1.0000
  H   H142      1.0  0.30938  0.15570  0.46969  1.0000
  H   H143      1.0  0.39200  0.42921  0.48333  1.0000
  H   H144      1.0  0.45034  0.42676  0.46857  1.0000
  H   H145      1.0  0.48960  0.50349  0.53895  1.0000
  H   H146      1.0  0.41502  0.47115  0.50988  1.0000
  H   H147      1.0  0.46802  0.52836  0.58722  1.0000
  H   H148      1.0  0.47046  0.42820  0.61265  1.0000
  H   H149      1.0  0.55860  0.45084  0.34651  1.0000
  H   H150      1.0  0.56760  0.48895  0.25415  1.0000
  H   H151      1.0  0.52874  0.49563  0.31934  1.0000
  H   H152      1.0  0.46886  0.39500  0.53473  1.0000
  H   H153      1.0  0.49401  0.34837  0.58945  1.0000
  H   H154      1.0  0.54522  0.42423  0.53960  1.0000
  H   H155      1.0  0.43942  0.35534  0.57614  1.0000
  H   H156      1.0  0.53839  0.36384  0.56494  1.0000
  H   H157      1.0  0.33088  0.18334  0.60095  1.0000
  H   H158      1.0  0.36803  0.22063  0.60828  1.0000
  H   H159      1.0  0.33727  0.25974  0.51745  1.0000
  H   H160      1.0  0.29916  0.22163  0.51471  1.0000
  H   H161      1.0  0.21252  0.95165  0.49546  1.0000
  H   H162      1.0  0.20892  0.91248  0.51379  1.0000
  H   H163      1.0  0.28564  0.94723  0.51710  1.0000
  H   H164      1.0  0.28940  0.98604  0.50077  1.0000
  H   H165      1.0  0.27249  0.91372  0.60114  1.0000
  H   H166      1.0  0.21606  0.85841  0.55076  1.0000
  H   H167      1.0  0.25124  0.81172  0.47757  1.0000
  H   H168      1.0  0.29099  0.88716  0.56923  1.0000
  H   H169      1.0  0.29389  0.82701  0.45762  1.0000
  H   H170      1.0  0.19169  0.83065  0.45422  1.0000
  H   H171      1.0  0.15230  0.79489  0.44092  1.0000
  H   H172      1.0  0.14468  0.75454  0.47104  1.0000
  H   H173      1.0  0.21423  0.78565  0.56034  1.0000
  H   H174      1.0  0.13708  0.72281  0.52735  1.0000
  H   H175      1.0  0.16902  0.67910  0.54060  1.0000
  H   H176      1.0  0.21348  0.75543  0.53915  1.0000
  H   H177      1.0  0.11140  0.68217  0.54204  1.0000
  H   H178      1.0  0.21426  0.69799  0.52295  1.0000
  H   H179      1.0  0.23669  0.69682  0.62860  1.0000
  H   H180      1.0  0.27694  0.69739  0.59943  1.0000
  H   H181      1.0  0.32390  0.77151  0.43831  1.0000
  H   H182      1.0  0.28264  0.77093  0.47267  1.0000
  H   H183      1.0  0.31793  0.81927  0.49857  1.0000
  H   H184      1.0  0.35734  0.81698  0.46022  1.0000
  H   H185      1.0  0.39275  0.89321  0.56095  1.0000
  H   H186      1.0  0.35354  0.89558  0.58917  1.0000
  H   H187      1.0  0.38101  0.81640  0.56093  1.0000
  H   H188      1.0  0.42116  0.81543  0.52919  1.0000
  H   H189      1.0  0.46987  0.88939  0.36724  1.0000
  H   H190      1.0  0.43080  0.89030  0.38953  1.0000
  H   H191      1.0  0.49201  0.88706  0.46228  1.0000
  H   H192      1.0  0.41974  0.76150  0.44681  1.0000
  H   H193      1.0  0.41159  0.69919  0.45103  1.0000
  H   H194      1.0  0.48561  0.72534  0.47629  1.0000
  H   H195      1.0  0.45811  0.77464  0.47853  1.0000
  H   H196      1.0  0.49193  0.82895  0.45249  1.0000
  H   H197      1.0  0.56711  0.86259  0.48309  1.0000
  H   H198      1.0  0.53553  0.90538  0.45328  1.0000
  H   H199      1.0  0.51640  0.75408  0.51408  1.0000
  H   H200      1.0  0.55646  0.78980  0.51675  1.0000
  H   H201      1.0  0.56350  0.83021  0.49498  1.0000
  H   H202      1.0  0.48956  0.79960  0.46168  1.0000
  H   H203      1.0  0.08688  0.65538  0.43481  1.0000
  H   H204      1.0  0.04802  0.61942  0.42641  1.0000
  H   H205      1.0  0.07143  0.57625  0.54758  1.0000
  H   H206      1.0  0.11150  0.61281  0.54808  1.0000
  H   H207      1.0  0.97016  0.48560  0.53267  1.0000
  H   H208      1.0  0.91782  0.49100  0.49741  1.0000
  H   H209      1.0  0.87077  0.41434  0.48407  1.0000
  H   H210      1.0  0.94487  0.44272  0.50826  1.0000
  H   H211      1.0  0.88931  0.49565  0.50134  1.0000
  H   H212      1.0  0.85389  0.50018  0.49727  1.0000
  H   H213      1.0  0.81503  0.46504  0.47430  1.0000
  H   H214      1.0  0.84438  0.41916  0.48910  1.0000
  H   H215      1.0  0.78153  0.43593  0.49584  1.0000
  H   H216      1.0  0.74587  0.36041  0.38411  1.0000
  H   H217      1.0  0.82023  0.39186  0.41395  1.0000
  H   H218      1.0  0.76681  0.33539  0.34191  1.0000
  H   H219      1.0  0.88506  0.38769  0.47067  1.0000
  H   H220      1.0  0.75261  0.30322  0.46252  1.0000
  H   H221      1.0  0.74965  0.26463  0.48125  1.0000
  H   H222      1.0  0.83201  0.29971  0.40171  1.0000
  H   H223      1.0  0.83432  0.33856  0.38992  1.0000
  H   H224      1.0  0.86912  0.27981  0.49131  1.0000
  H   H225      1.0  0.86721  0.24180  0.52382  1.0000
  H   H226      1.0  0.93641  0.28151  0.62179  1.0000
  H   H227      1.0  0.93743  0.31884  0.60108  1.0000
  H   H228      1.0  0.81986  0.19852  0.47241  1.0000
  H   H229      1.0  0.94001  0.25056  0.54079  1.0000
  H   H230      1.0  0.75747  0.14314  0.49060  1.0000
  H   H231      1.0  0.78365  0.09492  0.51394  1.0000
  H   H232      1.0  0.83369  0.17140  0.48677  1.0000
  H   H233      1.0  0.88325  0.19280  0.54399  1.0000
  H   H234      1.0  0.91465  0.15012  0.58545  1.0000
  H   H235      1.0  0.95730  0.22681  0.57879  1.0000
  H   H236      1.0  0.84927  0.16451  0.60831  1.0000
  H   H237      1.0  0.82138  0.09214  0.39060  1.0000
  H   H238      1.0  0.85869  0.08785  0.37257  1.0000
  H   H239      1.0  0.89367  0.12243  0.44512  1.0000
  H   H240      1.0  0.72968  0.10158  0.50113  1.0000
  H   H241      1.0  0.58955  0.90431  0.50672  1.0000
  H   H242      1.0  0.95442  0.16727  0.60200  1.0000
  H   H243      1.0  0.48442  0.55909  0.42881  1.0000
  H   H244      1.0  0.48689  0.59849  0.43607  1.0000
  H   H245      1.0  0.40121  0.56589  0.58625  1.0000
  H   H246      1.0  0.39923  0.52603  0.57178  1.0000
  H   H247      1.0  0.48109  0.62909  0.56673  1.0000
  H   H248      1.0  0.48657  0.66916  0.54667  1.0000
  H   H249      1.0  0.41818  0.63646  0.44177  1.0000
  H   H250      1.0  0.41248  0.59693  0.46362  1.0000
  H   H251      1.0  0.42469  0.67152  0.45751  1.0000
  H   H252      1.0  0.56024  0.36074  0.67558  1.0000
  H   H253      1.0  0.59907  0.35786  0.64129  1.0000
  H   H254      1.0  0.65374  0.42889  0.40438  1.0000
  H   H255      1.0  0.61386  0.43207  0.45018  1.0000
  H   H256      1.0  0.63652  0.35238  0.46948  1.0000
  H   H257      1.0  0.67592  0.34970  0.43669  1.0000
  H   H258      1.0  0.71663  0.42651  0.45940  1.0000
  H   H259      1.0  0.67727  0.42925  0.50237  1.0000
  H   H260      1.0  0.74027  0.41968  0.50160  1.0000
  H   H261      1.0  0.68765  0.99493  0.51957  1.0000
  H   H262      1.0  0.72756  0.03155  0.52209  1.0000
  H   H263      1.0  0.70186  0.07432  0.42236  1.0000
  H   H264      1.0  0.66312  0.03822  0.41091  1.0000
  C   C187      1.0  0.20180  0.21555  0.39800  1.0000
  C   C188      1.0  0.17821  0.19565  0.40440  1.0000
  C   C189      1.0  0.17350  0.17258  0.42706  1.0000
  C   C190      1.0  0.19166  0.16930  0.44916  1.0000
  C   C191      1.0  0.21527  0.18964  0.44258  1.0000
  C   C192      1.0  0.22051  0.21264  0.41720  1.0000
  C   C193      1.0  0.15816  0.19952  0.39845  1.0000
  C   C194      1.0  0.24431  0.23319  0.42417  1.0000
  C   C195      1.0  0.27171  0.27468  0.42009  1.0000
  C   C196      1.0  0.29123  0.27427  0.44737  1.0000
  C   C197      1.0  0.31274  0.29535  0.45376  1.0000
  C   C198      1.0  0.31595  0.31798  0.43433  1.0000
  C   C199      1.0  0.29642  0.31821  0.40624  1.0000
  C   C200      1.0  0.27490  0.29714  0.39909  1.0000
  C   C201      1.0  0.33890  0.34029  0.44011  1.0000
  C   C202      1.0  0.36196  0.34032  0.42338  1.0000
  C   C203      1.0  0.38381  0.36160  0.42386  1.0000
  C   C204      1.0  0.38376  0.38398  0.44175  1.0000
  C   C205      1.0  0.36069  0.38414  0.45993  1.0000
  C   C206      1.0  0.33898  0.36289  0.45916  1.0000
  C   C207      1.0  0.18574  0.14549  0.48985  1.0000
  C   C208      1.0  0.15872  0.12685  0.56731  1.0000
  C   C209      1.0  0.15368  0.10496  0.61198  1.0000
  C   C210      1.0  0.17516  0.10126  0.58330  1.0000
  C   C211      1.0  0.20234  0.11961  0.50687  1.0000
  C   C212      1.0  0.20713  0.14127  0.45849  1.0000
  C   C213      1.0  0.22539  0.11712  0.48611  1.0000
  C   C214      1.0  0.22571  0.09471  0.46299  1.0000
  C   C215      1.0  0.24690  0.09264  0.45650  1.0000
  C   C216      1.0  0.26897  0.11353  0.46556  1.0000
  C   C217      1.0  0.26915  0.13603  0.48682  1.0000
  C   C218      1.0  0.24719  0.13750  0.49959  1.0000
  C   C219      1.0  0.24436  0.06864  0.45116  1.0000
  C   C220      1.0  0.29165  0.15798  0.49922  1.0000
  C   C221      1.0  0.31255  0.19948  0.54977  1.0000
  C   C222      1.0  0.40747  0.42546  0.47535  1.0000
  C   C223      1.0  0.42986  0.44651  0.49491  1.0000
  C   C224      1.0  0.45112  0.44457  0.48901  1.0000
  C   C225      1.0  0.47321  0.46487  0.49996  1.0000
  C   C226      1.0  0.47309  0.48744  0.52443  1.0000
  C   C227      1.0  0.45219  0.48974  0.52865  1.0000
  C   C228      1.0  0.43070  0.46911  0.51164  1.0000
  C   C229      1.0  0.45337  0.51343  0.54378  1.0000
  C   C230      1.0  0.49667  0.46219  0.47130  1.0000
  C   C231      1.0  0.49193  0.44120  0.52999  1.0000
  C   C232      1.0  0.51369  0.43659  0.48780  1.0000
  C   C233      1.0  0.54119  0.45421  0.38760  1.0000
  C   C234      1.0  0.54623  0.47556  0.33367  1.0000
  C   C235      1.0  0.52432  0.47957  0.37321  1.0000
  C   C236      1.0  0.50770  0.41304  0.53424  1.0000
  C   C237      1.0  0.48350  0.39298  0.54971  1.0000
  C   C238      1.0  0.47852  0.36977  0.56800  1.0000
  C   C239      1.0  0.49792  0.36646  0.57610  1.0000
  C   C240      1.0  0.52161  0.38629  0.56988  1.0000
  C   C241      1.0  0.52633  0.40938  0.54796  1.0000
  C   C242      1.0  0.45387  0.34997  0.56663  1.0000
  C   C243      1.0  0.54226  0.38266  0.57137  1.0000
  C   C244      1.0  0.33256  0.19989  0.57593  1.0000
  C   C245      1.0  0.35388  0.22129  0.57948  1.0000
  C   C246      1.0  0.35673  0.24363  0.55660  1.0000
  C   C247      1.0  0.33619  0.24317  0.53630  1.0000
  C   C248      1.0  0.31454  0.22168  0.53428  1.0000
  C   C249      1.0  0.25123  0.97251  0.49838  1.0000
  C   C250      1.0  0.22869  0.95109  0.50111  1.0000
  C   C251      1.0  0.22642  0.92884  0.51134  1.0000
  C   C252      1.0  0.24655  0.92670  0.51910  1.0000
  C   C253      1.0  0.26933  0.94798  0.51434  1.0000
  C   C254      1.0  0.27143  0.97015  0.50481  1.0000
  C   C255      1.0  0.25683  0.89937  0.56431  1.0000
  C   C256      1.0  0.25383  0.87514  0.55626  1.0000
  C   C257      1.0  0.23157  0.85507  0.54287  1.0000
  C   C258      1.0  0.22966  0.83184  0.51946  1.0000
  C   C259      1.0  0.25108  0.82929  0.50627  1.0000
  C   C260      1.0  0.27273  0.84893  0.52809  1.0000
  C   C261      1.0  0.27385  0.87198  0.55546  1.0000
  C   C262      1.0  0.29427  0.84499  0.51257  1.0000
  C   C263      1.0  0.20620  0.81067  0.50635  1.0000
  C   C264      1.0  0.18822  0.81307  0.47453  1.0000
  C   C265      1.0  0.16606  0.79283  0.46543  1.0000
  C   C266      1.0  0.16168  0.76993  0.48412  1.0000
  C   C267      1.0  0.17933  0.76688  0.51525  1.0000
  C   C268      1.0  0.20115  0.78756  0.52780  1.0000
  C   C269      1.0  0.17561  0.74286  0.53266  1.0000
  C   C270      1.0  0.15301  0.72180  0.53323  1.0000
  C   C271      1.0  0.15066  0.69894  0.53446  1.0000
  C   C272      1.0  0.17104  0.69689  0.53945  1.0000
  C   C273      1.0  0.19318  0.71761  0.54566  1.0000
  C   C274      1.0  0.19523  0.74020  0.54138  1.0000
  C   C275      1.0  0.12699  0.67805  0.52853  1.0000
  C   C276      1.0  0.21543  0.71612  0.54192  1.0000
  C   C277      1.0  0.33341  0.85796  0.53955  1.0000
  C   C278      1.0  0.25723  0.73375  0.54307  1.0000
  C   C279      1.0  0.25601  0.71305  0.57994  1.0000
  C   C280      1.0  0.27887  0.71337  0.56282  1.0000
  C   C281      1.0  0.30409  0.73419  0.50898  1.0000
  C   C282      1.0  0.30483  0.75506  0.47993  1.0000
  C   C283      1.0  0.28189  0.75488  0.49814  1.0000
  C   C284      1.0  0.33449  0.83568  0.50883  1.0000
  C   C285      1.0  0.35672  0.83436  0.48906  1.0000
  C   C286      1.0  0.37868  0.85494  0.50268  1.0000
  C   C287      1.0  0.37693  0.87703  0.54030  1.0000
  C   C288      1.0  0.35490  0.87851  0.55838  1.0000
  C   C289      1.0  0.40231  0.85363  0.48185  1.0000
  C   C290      1.0  0.40048  0.83246  0.51610  1.0000
  C   C291      1.0  0.42286  0.83174  0.49957  1.0000
  C   C292      1.0  0.44797  0.85231  0.45332  1.0000
  C   C293      1.0  0.45026  0.87345  0.41392  1.0000
  C   C294      1.0  0.42803  0.87396  0.42747  1.0000
  C   C295      1.0  0.48974  0.86868  0.45142  1.0000
  C   C296      1.0  0.51165  0.86684  0.44908  1.0000
  C   C297      1.0  0.41356  0.74251  0.46022  1.0000
  C   C298      1.0  0.43314  0.73750  0.46316  1.0000
  C   C299      1.0  0.42948  0.71399  0.45794  1.0000
  C   C300      1.0  0.44846  0.70988  0.46336  1.0000
  C   C301      1.0  0.47146  0.72947  0.47233  1.0000
  C   C302      1.0  0.47559  0.75315  0.47798  1.0000
  C   C303      1.0  0.45601  0.75666  0.47311  1.0000
  C   C304      1.0  0.50990  0.84431  0.45311  1.0000
  C   C305      1.0  0.52956  0.84198  0.46451  1.0000
  C   C306      1.0  0.55152  0.86330  0.47070  1.0000
  C   C307      1.0  0.55374  0.88594  0.46585  1.0000
  C   C308      1.0  0.53372  0.88769  0.45438  1.0000
  C   C309      1.0  0.49973  0.77407  0.48577  1.0000
  C   C310      1.0  0.52673  0.81803  0.47627  1.0000
  C   C311      1.0  0.51912  0.77167  0.50103  1.0000
  C   C312      1.0  0.54181  0.79192  0.50284  1.0000
  C   C313      1.0  0.54575  0.81489  0.49049  1.0000
  C   C314      1.0  0.50416  0.79735  0.47422  1.0000
  C   C315      1.0  0.10156  0.63684  0.50067  1.0000
  C   C316      1.0  0.08320  0.63826  0.46630  1.0000
  C   C317      1.0  0.06117  0.61774  0.46028  1.0000
  C   C318      1.0  0.05623  0.59481  0.48893  1.0000
  C   C319      1.0  0.07486  0.59351  0.52067  1.0000
  C   C320      1.0  0.09717  0.61398  0.52412  1.0000
  C   C321      1.0  0.95741  0.48975  0.50951  1.0000
  C   C322      1.0  0.93374  0.46910  0.50078  1.0000
  C   C323      1.0  0.91411  0.47256  0.49634  1.0000
  C   C324      1.0  0.89087  0.45325  0.49273  1.0000
  C   C325      1.0  0.88818  0.43008  0.48948  1.0000
  C   C326      1.0  0.90726  0.42618  0.49523  1.0000
  C   C327      1.0  0.93027  0.44589  0.50160  1.0000
  C   C328      1.0  0.86962  0.45677  0.49479  1.0000
  C   C329      1.0  0.87184  0.47975  0.49845  1.0000
  C   C330      1.0  0.85176  0.48230  0.49620  1.0000
  C   C331      1.0  0.82952  0.46233  0.48562  1.0000
  C   C332      1.0  0.82675  0.43909  0.48014  1.0000
  C   C333      1.0  0.84676  0.43701  0.48878  1.0000
  C   C334      1.0  0.80449  0.41735  0.45635  1.0000
  C   C335      1.0  0.78263  0.41876  0.46646  1.0000
  C   C336      1.0  0.76174  0.39853  0.43990  1.0000
  C   C337      1.0  0.76231  0.37600  0.40307  1.0000
  C   C338      1.0  0.78332  0.37395  0.39761  1.0000
  C   C339      1.0  0.80436  0.39460  0.42150  1.0000
  C   C340      1.0  0.78208  0.35016  0.38027  1.0000
  C   C341      1.0  0.90210  0.40144  0.49611  1.0000
  C   C342      1.0  0.79415  0.32390  0.42064  1.0000
  C   C343      1.0  0.77027  0.30255  0.44641  1.0000
  C   C344      1.0  0.76866  0.28061  0.45652  1.0000
  C   C345      1.0  0.79070  0.27873  0.44056  1.0000
  C   C346      1.0  0.81437  0.30018  0.41625  1.0000
  C   C347      1.0  0.81592  0.32219  0.40870  1.0000
  C   C348      1.0  0.90431  0.30257  0.53552  1.0000
  C   C349      1.0  0.88389  0.28038  0.52074  1.0000
  C   C350      1.0  0.88286  0.25890  0.53696  1.0000
  C   C351      1.0  0.90249  0.25865  0.56382  1.0000
  C   C352      1.0  0.92226  0.28082  0.58568  1.0000
  C   C353      1.0  0.92286  0.30208  0.57338  1.0000
  C   C354      1.0  0.80053  0.18400  0.47991  1.0000
  C   C355      1.0  0.79565  0.15977  0.49418  1.0000
  C   C356      1.0  0.92068  0.23484  0.56097  1.0000
  C   C357      1.0  0.91926  0.21190  0.57007  1.0000
  C   C358      1.0  0.77212  0.13998  0.49670  1.0000
  C   C359      1.0  0.76831  0.11678  0.50057  1.0000
  C   C360      1.0  0.78782  0.11326  0.50600  1.0000
  C   C361      1.0  0.81140  0.13264  0.50415  1.0000
  C   C362      1.0  0.81500  0.15593  0.49732  1.0000
  C   C363      1.0  0.89761  0.19070  0.56111  1.0000
  C   C364      1.0  0.89571  0.16812  0.56128  1.0000
  C   C365      1.0  0.91588  0.16731  0.57795  1.0000
  C   C366      1.0  0.93796  0.18825  0.58433  1.0000
  C   C367      1.0  0.93979  0.21070  0.57773  1.0000
  C   C368      1.0  0.83283  0.12903  0.49834  1.0000
  C   C369      1.0  0.87433  0.14640  0.52941  1.0000
  C   C370      1.0  0.85198  0.14795  0.54953  1.0000
  C   C371      1.0  0.83553  0.10716  0.43485  1.0000
  C   C372      1.0  0.85691  0.10489  0.42145  1.0000
  C   C373      1.0  0.87651  0.12433  0.46465  1.0000
  C   C374      1.0  0.74418  0.09665  0.49540  1.0000
  C   C375      1.0  0.57646  0.90738  0.47922  1.0000
  C   C376      1.0  0.95897  0.18575  0.58860  1.0000
  C   C377      1.0  0.44106  0.53967  0.50922  1.0000
  C   C378      1.0  0.46587  0.56054  0.46905  1.0000
  C   C379      1.0  0.46717  0.58288  0.47387  1.0000
  C   C380      1.0  0.44399  0.58568  0.51876  1.0000
  C   C381      1.0  0.41952  0.56464  0.55340  1.0000
  C   C382      1.0  0.41815  0.54216  0.54651  1.0000
  C   C383      1.0  0.44632  0.60957  0.51664  1.0000
  C   C384      1.0  0.46737  0.63050  0.53759  1.0000
  C   C385      1.0  0.47059  0.65311  0.52674  1.0000
  C   C386      1.0  0.45310  0.65608  0.49314  1.0000
  C   C387      1.0  0.43187  0.63520  0.47258  1.0000
  C   C388      1.0  0.42853  0.61259  0.48598  1.0000
  C   C389      1.0  0.44321  0.68510  0.46597  1.0000
  C   C390      1.0  0.58452  0.39659  0.55891  1.0000
  C   C391      1.0  0.58085  0.37556  0.61134  1.0000
  C   C392      1.0  0.60298  0.37390  0.59055  1.0000
  C   C393      1.0  0.62992  0.39290  0.51504  1.0000
  C   C394      1.0  0.63328  0.41393  0.46555  1.0000
  C   C395      1.0  0.61112  0.41585  0.48969  1.0000
  C   C396      1.0  0.65339  0.39102  0.49190  1.0000
  C   C397      1.0  0.65367  0.36868  0.47299  1.0000
  C   C398      1.0  0.67579  0.36701  0.45220  1.0000
  C   C399      1.0  0.69883  0.38761  0.45001  1.0000
  C   C400      1.0  0.69902  0.41008  0.46404  1.0000
  C   C401      1.0  0.67679  0.41164  0.48604  1.0000
  C   C402      1.0  0.73942  0.40146  0.45841  1.0000
  C   C403      1.0  0.67221  0.01360  0.46413  1.0000
  C   C404      1.0  0.69092  0.01221  0.49441  1.0000
  C   C405      1.0  0.71314  0.03263  0.49862  1.0000
  C   C406      1.0  0.71738  0.05549  0.47674  1.0000
  C   C407      1.0  0.69868  0.05707  0.44726  1.0000
  C   C408      1.0  0.67666  0.03656  0.44085  1.0000
  N   N25       1.0  0.24927  0.25482  0.40926  1.0000
  N   N26       1.0  0.13468  0.18228  0.42323  1.0000
  N   N27       1.0  0.29073  0.17867  0.53897  1.0000
  N   N28       1.0  0.26168  0.06505  0.46149  1.0000
  N   N29       1.0  0.40626  0.40414  0.44978  1.0000
  N   N30       1.0  0.44995  0.32792  0.55175  1.0000
  N   N31       1.0  0.24239  0.90334  0.52434  1.0000
  N   N32       1.0  0.31257  0.86175  0.55690  1.0000
  N   N33       1.0  0.23552  0.73519  0.55324  1.0000
  N   N34       1.0  0.39084  0.72545  0.47042  1.0000
  N   N35       1.0  0.46890  0.84994  0.44720  1.0000
  N   N36       1.0  0.12450  0.65637  0.50911  1.0000
  N   N37       1.0  0.96252  0.51138  0.49365  1.0000
  N   N38       1.0  0.79753  0.34696  0.41525  1.0000
  N   N39       1.0  0.91706  0.39630  0.52137  1.0000
  N   N40       1.0  0.78296  0.18756  0.47308  1.0000
  N   N41       1.0  0.90055  0.23627  0.57169  1.0000
  N   N42       1.0  0.74049  0.07474  0.48399  1.0000
  N   N43       1.0  0.58052  0.92855  0.46181  1.0000
  N   N44       1.0  0.98160  0.20362  0.57323  1.0000
  N   N45       1.0  0.43807  0.51653  0.50678  1.0000
  N   N46       1.0  0.45885  0.67989  0.48309  1.0000
  N   N47       1.0  0.56404  0.40040  0.57117  1.0000
  N   N48       1.0  0.71985  0.38390  0.43049  1.0000
  C   C409      1.0  0.33767  0.21288  0.07766  1.0000
  C   C410      1.0  0.34524  0.23650  0.04887  1.0000
  C  Sn1       1.0  0.32788  0.24205  0.03535  1.0000
  C  Sn2       1.0  0.30249  0.22358  0.05106  1.0000
  C   C411      1.0  0.29510  0.20002  0.07999  1.0000
  C   C412      1.0  0.31262  0.19466  0.09325  1.0000
  H   H265      1.0  0.35122  0.20874  0.08803  1.0000
  O  Te1       1.0  0.33576  0.26573  0.00650  1.0000
  O  Te2       1.0  0.28475  0.22863  0.03815  1.0000
  H   H266      1.0  0.30675  0.17638  0.11567  1.0000
  Mg  Mg1       1.0  0.23321  0.26662  0.99833  1.0000
  C   C413      1.0  0.74687  0.21525  0.01338  1.0000
  C   C414      1.0  0.69581  0.21148  0.96858  1.0000
  C  Sn3       1.0  0.72199  0.22892  0.93663  1.0000
  C  Sn4       1.0  0.72786  0.25353  0.94993  1.0000
  C   C415      1.0  0.70737  0.26007  0.99498  1.0000
  C   C416      1.0  0.75264  0.23952  0.02661  1.0000
  H   H267      1.0  0.72665  0.20164  0.03797  1.0000
  O  Te3       1.0  0.74207  0.22188  0.89193  1.0000
  O  Te4       1.0  0.75385  0.27132  0.91876  1.0000
  H   H268      1.0  0.73690  0.24474  0.06143  1.0000
  Mg  Mg2       1.0  0.77438  0.25277  0.86180  1.0000
  C   C417      1.0  0.46264  0.64831  0.99403  1.0000
  C   C418      1.0  0.51412  0.65092  0.01673  1.0000
  C  Sn5       1.0  0.48783  0.63292  0.05635  1.0000
  C  Sn6       1.0  0.48142  0.60890  0.07354  1.0000
  C   C419      1.0  0.50148  0.60351  0.05073  1.0000
  C   C420      1.0  0.52773  0.62166  0.01104  1.0000
  H   H269      1.0  0.48294  0.66236  0.96343  1.0000
  O  Te5       1.0  0.46818  0.63880  0.07853  1.0000
  O  Te6       1.0  0.45531  0.59056  0.11316  1.0000
  H   H270      1.0  0.47174  0.62030  0.99360  1.0000
  Mg  Mg3       1.0  0.43550  0.60753  0.13123  1.0000
  C   C421      1.0  0.60824  0.94443  0.02472  1.0000
  C   C422      1.0  0.58653  0.94190  0.00955  1.0000
  C  Sn7       1.0  0.51534  0.96473  0.97170  1.0000
  C  Sn8       1.0  0.53774  0.98753  0.94863  1.0000
  C   C423      1.0  0.55937  0.98987  0.96393  1.0000
  C   C424      1.0  0.63034  0.96691  0.00191  1.0000
  H   H271      1.0  0.60792  0.92896  0.05399  1.0000
  O  Te7       1.0  0.49348  0.96188  0.95707  1.0000
  O  Te8       1.0  0.03864  0.00768  0.91063  1.0000
  H   H272      1.0  0.64716  0.96887  0.01352  1.0000
  Mg  Mg4       1.0  0.50387  0.99471  0.90372  1.0000
  C   C425      1.0  0.11461  0.21318  0.41883  1.0000
  C   C426      1.0  0.11571  0.19283  0.43540  1.0000
  C  Sn9       1.0  0.09389  0.17028  0.45570  1.0000
  C  Sn10      1.0  0.07058  0.16812  0.45936  1.0000
  C   C427      1.0  0.06969  0.18858  0.44254  1.0000
  C   C428      1.0  0.09163  0.21106  0.42236  1.0000
  H   H273      1.0  0.13159  0.23057  0.40310  1.0000
  O  Te9       1.0  0.09531  0.15014  0.47215  1.0000
  O  Te10      1.0  0.04849  0.14580  0.47942  1.0000
  H   H274      1.0  0.09079  0.22681  0.40940  1.0000
  Mg  Mg5       1.0  0.06005  0.12362  0.49677  1.0000
  C   C429      1.0  0.40604  0.27764  0.09398  1.0000
  C   C430      1.0  0.41451  0.30120  0.05734  1.0000
  C  Sn11      1.0  0.39858  0.30677  0.02717  1.0000
  C  Sn12      1.0  0.37371  0.28837  0.03395  1.0000
  C   C431      1.0  0.36541  0.26487  0.07085  1.0000
  C   C432      1.0  0.38152  0.25949  0.10078  1.0000
  H   H275      1.0  0.41850  0.27349  0.11725  1.0000
  O  Te11      1.0  0.33595  0.33336  0.99066  1.0000
  O  Te12      1.0  0.35739  0.29344  0.00438  1.0000
  H   H276      1.0  0.37494  0.24125  0.12927  1.0000
  Mg  Mg6       1.0  0.30664  0.33133  0.95958  1.0000
  C   C433      1.0  0.34525  0.70672  0.42893  1.0000
  C   C434      1.0  0.36717  0.72472  0.45604  1.0000
  C  Sn13      1.0  0.36909  0.74812  0.50685  1.0000
  C  Sn14      1.0  0.34865  0.75355  0.53092  1.0000
  C   C435      1.0  0.32678  0.73542  0.50361  1.0000
  C   C436      1.0  0.32507  0.71206  0.45272  1.0000
  H   H277      1.0  0.34391  0.68865  0.38966  1.0000
  O  Te13      1.0  0.39114  0.76588  0.53331  1.0000
  O  Te14      1.0  0.35006  0.77679  0.58174  1.0000
  H   H278      1.0  0.30808  0.69813  0.43187  1.0000
  Mg  Mg7       1.0  0.38405  0.79485  0.60178  1.0000
  C   C437      1.0  0.80882  0.25066  0.50627  1.0000
  C   C438      1.0  0.79421  0.25546  0.45632  1.0000
  C  Sn15      1.0  0.77398  0.23666  0.41538  1.0000
  C  Sn16      1.0  0.76831  0.21263  0.42480  1.0000
  C   C439      1.0  0.78303  0.20801  0.47505  1.0000
  C   C440      1.0  0.80324  0.22696  0.51566  1.0000
  H   H279      1.0  0.82445  0.26531  0.53780  1.0000
  O  Te15      1.0  0.75958  0.24178  0.36565  1.0000
  O  Te16      1.0  0.74819  0.19350  0.38467  1.0000
  H   H280      1.0  0.81453  0.22323  0.55446  1.0000
  Mg  Mg8       1.0  0.73410  0.20961  0.32357  1.0000
  C   C441      1.0  0.35298  0.87587  0.07287  1.0000
  C   C442      1.0  0.35643  0.85504  0.04441  1.0000
  C  Sn17      1.0  0.26782  0.83620  0.99755  1.0000
  C  Sn18      1.0  0.24677  0.83530  0.97890  1.0000
  C   C443      1.0  0.31490  0.85328  0.00752  1.0000
  C   C444      1.0  0.33224  0.87500  0.05442  1.0000
  H   H281      1.0  0.36641  0.89268  0.10905  1.0000
  O  Te17      1.0  0.27154  0.81556  0.96968  1.0000
  O  Te18      1.0  0.22928  0.81375  0.93211  1.0000
  H   H282      1.0  0.32958  0.89113  0.07632  1.0000
  Mg  Mg9       1.0  0.24251  0.79046  0.90814  1.0000
  C   C445      1.0  0.01121  0.17483  0.43557  1.0000
  C   C446      1.0  0.00210  0.19315  0.53612  1.0000
  C  Sn19      1.0  0.01683  0.21313  0.61559  1.0000
  C  Sn20      1.0  0.04111  0.21475  0.59370  1.0000
  C   C447      1.0  0.05006  0.19633  0.49273  1.0000
  C   C448      1.0  0.03517  0.17642  0.41385  1.0000
  H   H283      1.0  0.99970  0.15943  0.37444  1.0000
  O  Te19      1.0  0.00743  0.23127  0.71568  1.0000
  O  Te20      1.0  0.05623  0.23452  0.67160  1.0000
  H   H284      1.0  0.04224  0.16225  0.33589  1.0000
  Mg  Mg10      1.0  0.03510  0.25463  0.79575  1.0000
  C   C449      1.0  0.00855  0.54230  0.05421  1.0000
  C   C450      1.0  0.01742  0.56584  0.01455  1.0000
  C  Sn21      1.0  0.93080  0.57437  0.97654  1.0000
  C  Sn22      1.0  0.90626  0.55600  0.97842  1.0000
  C   C451      1.0  0.96895  0.52954  0.01840  1.0000
  C   C452      1.0  0.98434  0.52417  0.05617  1.0000
  H   H285      1.0  0.02045  0.53814  0.08355  1.0000
  O  Te21      1.0  0.93996  0.59798  0.93711  1.0000
  O  Te22      1.0  0.89064  0.56107  0.94100  1.0000
  H   H286      1.0  0.97746  0.50594  0.08700  1.0000
  Mg  Mg11      1.0  0.91160  0.59597  0.89494  1.0000
  C   C453      1.0  0.34756  0.74893  0.01015  1.0000
  C   C454      1.0  0.27970  0.73115  0.98318  1.0000
  C  Sn23      1.0  0.26169  0.70904  0.94659  1.0000
  C  Sn24      1.0  0.23975  0.70773  0.93687  1.0000
  C   C455      1.0  0.23639  0.72858  0.96392  1.0000
  C   C456      1.0  0.32593  0.74765  0.00051  1.0000
  H   H287      1.0  0.36161  0.76598  0.03835  1.0000
  O  Te23      1.0  0.26552  0.68850  0.92006  1.0000
  O  Te24      1.0  0.22145  0.68586  0.90044  1.0000
  H   H288      1.0  0.32320  0.76371  0.02126  1.0000
  Mg  Mg12      1.0  0.23518  0.66286  0.87420  1.0000
  C   C457      1.0  0.99500  0.17161  0.93792  1.0000
  C   C458      1.0  0.05507  0.18553  0.04494  1.0000
  C  Sn25      1.0  0.06827  0.20589  0.13167  1.0000
  C  Sn26      1.0  0.09327  0.20936  0.11056  1.0000
  C   C459      1.0  0.10443  0.19237  0.00308  1.0000
  C   C460      1.0  0.01966  0.17502  0.91696  1.0000
  H   H289      1.0  0.98465  0.15590  0.87119  1.0000
  O  Te25      1.0  0.05667  0.22258  0.23816  1.0000
  O  Te26      1.0  0.10689  0.22955  0.19565  1.0000
  H   H290      1.0  0.02844  0.16195  0.83400  1.0000
  Mg  Mg13      1.0  0.08294  0.24721  0.32680  1.0000
  C   C461      1.0  0.88247  0.34554  0.56301  1.0000
  C   C462      1.0  0.90508  0.36775  0.53413  1.0000
  C  Sn27      1.0  0.93047  0.36904  0.48314  1.0000
  C  Sn28      1.0  0.93321  0.34767  0.46070  1.0000
  C   C463      1.0  0.91048  0.32553  0.48977  1.0000
  C   C464      1.0  0.88516  0.32444  0.54083  1.0000
  H   H291      1.0  0.86289  0.34469  0.60240  1.0000
  O  Te27      1.0  0.95285  0.39139  0.45491  1.0000
  O  Te28      1.0  0.95835  0.34844  0.40974  1.0000
  H   H292      1.0  0.86767  0.30724  0.56305  1.0000
  Mg  Mg14      1.0  0.98284  0.38317  0.38697  1.0000
  C   C465      1.0  0.56924  0.36903  0.12112  1.0000
  C   C466      1.0  0.56857  0.38890  0.09168  1.0000
  C  Sn29      1.0  0.59275  0.41019  0.02149  1.0000
  C  Sn30      1.0  0.54665  0.41452  0.98008  1.0000
  C   C467      1.0  0.61850  0.39158  0.00988  1.0000
  C   C468      1.0  0.59418  0.37036  0.08024  1.0000
  H   H293      1.0  0.55043  0.35260  0.17545  1.0000
  O  Te29      1.0  0.52031  0.43284  0.99298  1.0000
  O  Te30      1.0  0.57112  0.43558  0.90971  1.0000
  H   H294      1.0  0.59471  0.35497  0.10289  1.0000
  Mg  Mg15      1.0  0.55916  0.45758  0.89470  1.0000
  C   C469      1.0  0.26439  0.03879  0.99763  1.0000
  C   C470      1.0  0.24761  0.04399  0.97421  1.0000
  C  Sn31      1.0  0.22426  0.02552  0.96690  1.0000
  C  Sn32      1.0  0.71748  0.00141  0.98344  1.0000
  C   C471      1.0  0.80579  0.99344  0.00697  1.0000
  C   C472      1.0  0.32927  0.01206  0.01403  1.0000
  H   H295      1.0  0.35382  0.05023  0.00321  1.0000
  O  Te31      1.0  0.20772  0.03103  0.94336  1.0000
  O  Te32      1.0  0.69426  0.98261  0.97669  1.0000
  H   H296      1.0  0.34224  0.00802  0.03230  1.0000
  Mg  Mg16      1.0  0.67812  0.99920  0.94260  1.0000
  C   C473      1.0  0.01759  0.53250  0.43197  1.0000
  C   C474      1.0  0.99139  0.52988  0.48826  1.0000
  C  Sn33      1.0  0.98587  0.55003  0.53698  1.0000
  C  Sn34      1.0  0.00700  0.57320  0.52901  1.0000
  C   C475      1.0  0.03315  0.57562  0.47238  1.0000
  C   C476      1.0  0.03845  0.55535  0.42400  1.0000
  H   H297      1.0  0.02170  0.51681  0.39443  1.0000
  O  Te33      1.0  0.95958  0.54709  0.59298  1.0000
  O  Te34      1.0  0.00205  0.59363  0.57687  1.0000
  H   H298      1.0  0.05874  0.55738  0.38030  1.0000
  Mg  Mg17      1.0  0.96290  0.58040  0.64453  1.0000
  C   C477      1.0  0.45275  0.57930  0.06981  1.0000
  C   C478      1.0  0.43839  0.58469  0.02152  1.0000
  C  Sn35      1.0  0.34551  0.56928  0.99142  1.0000
  C  Sn36      1.0  0.40971  0.54211  0.01017  1.0000
  C   C479      1.0  0.42420  0.53690  0.05866  1.0000
  C   C480      1.0  0.44567  0.55543  0.08840  1.0000
  H   H299      1.0  0.46935  0.59363  0.09293  1.0000
  O  Te35      1.0  0.33137  0.57498  0.94319  1.0000
  O  Te36      1.0  0.31693  0.52636  0.98095  1.0000
  H   H300      1.0  0.45678  0.55125  0.12591  1.0000
  Mg  Mg18      1.0  0.30378  0.54321  0.91762  1.0000
  C   C481      1.0  0.08306  0.21518  0.99100  1.0000
  C   C482      1.0  0.06106  0.19689  0.96621  1.0000
  C  Sn37      1.0  0.05767  0.17314  0.93816  1.0000
  C  Sn38      1.0  0.07668  0.16766  0.93499  1.0000
  C   C483      1.0  0.09862  0.18609  0.96007  1.0000
  C   C484      1.0  0.10182  0.20979  0.98797  1.0000
  H   H301      1.0  0.15694  0.23056  0.01270  1.0000
  O  Te37      1.0  0.03557  0.15508  0.91355  1.0000
  O  Te38      1.0  0.07377  0.14407  0.90729  1.0000
  H   H302      1.0  0.19025  0.22099  0.00729  1.0000
  Mg  Mg19      1.0  0.04034  0.12570  0.88037  1.0000
  C   C485      1.0  0.38520  0.29569  0.56682  1.0000
  C   C486      1.0  0.38109  0.27181  0.54623  1.0000
  C  Sn39      1.0  0.40008  0.26610  0.53625  1.0000
  C  Sn40      1.0  0.42360  0.28468  0.54719  1.0000
  C   C487      1.0  0.42751  0.30852  0.56794  1.0000
  C   C488      1.0  0.40838  0.31403  0.57770  1.0000
  H   H303      1.0  0.37039  0.29996  0.57449  1.0000
  O  Te39      1.0  0.39566  0.24215  0.51559  1.0000
  O  Te40      1.0  0.44290  0.27948  0.53767  1.0000
  H   H304      1.0  0.41156  0.33252  0.59378  1.0000
  Mg  Mg20      1.0  0.42782  0.24410  0.50928  1.0000
  C   C489      1.0  0.21002  0.94676  0.00072  1.0000
  C   C490      1.0  0.22897  0.96971  0.01604  1.0000
  C  Sn41      1.0  0.25089  0.97267  0.03064  1.0000
  C  Sn42      1.0  0.25384  0.95224  0.02981  1.0000
  C   C491      1.0  0.23478  0.92934  0.01428  1.0000
  C   C492      1.0  0.14152  0.92955  0.99981  1.0000
  H   H305      1.0  0.12171  0.94758  0.98941  1.0000
  O  Te41      1.0  0.26964  0.99574  0.04591  1.0000
  O  Te42      1.0  0.27557  0.95468  0.04413  1.0000
  H   H306      1.0  0.12686  0.91177  0.98782  1.0000
  Mg  Mg21      1.0  0.29581  0.98983  0.06205  1.0000
  C   C493      1.0  0.05309  0.63424  0.08175  1.0000
  C   C494      1.0  0.07816  0.63781  0.05450  1.0000
  C  Sn43      1.0  0.08518  0.61850  0.00300  1.0000
  C  Sn44      1.0  0.99534  0.59818  0.97838  1.0000
  C   C495      1.0  0.04172  0.59183  0.00583  1.0000
  C   C496      1.0  0.03489  0.61128  0.05741  1.0000
  H   H307      1.0  0.04781  0.64928  0.12155  1.0000
  O  Te43      1.0  0.03891  0.62534  0.97642  1.0000
  O  Te44      1.0  0.00185  0.57857  0.92687  1.0000
  H   H308      1.0  0.01548  0.60851  0.07837  1.0000
  Mg  Mg22      1.0  0.03851  0.59293  0.90692  1.0000
  C   C497      1.0  0.60509  0.97770  0.51419  1.0000
  C   C498      1.0  0.60379  0.95452  0.45333  1.0000
  C  Sn45      1.0  0.62596  0.94965  0.39733  1.0000
  C  Sn46      1.0  0.64985  0.96837  0.40257  1.0000
  C   C499      1.0  0.65095  0.99149  0.46381  1.0000
  C   C500      1.0  0.62864  0.99617  0.51947  1.0000
  H   H309      1.0  0.58783  0.98132  0.55736  1.0000
  O  Te45      1.0  0.62431  0.92640  0.33684  1.0000
  O  Te46      1.0  0.67230  0.96400  0.34746  1.0000
  H   H310      1.0  0.12982  0.01411  0.56671  1.0000
  Mg  Mg23      1.0  0.66025  0.92936  0.27581  1.0000
  C   C501      1.0  0.73227  0.00161  0.45574  1.0000
  C   C502      1.0  0.24964  0.99635  0.46965  1.0000
  C  Sn47      1.0  0.77185  0.01482  0.49291  1.0000
  C  Sn48      1.0  0.77638  0.03897  0.50242  1.0000
  C   C503      1.0  0.75872  0.04405  0.48851  1.0000
  C   C504      1.0  0.73671  0.02543  0.46519  1.0000
  H   H311      1.0  0.21507  0.98721  0.43781  1.0000
  O  Te47      1.0  0.78918  0.00925  0.50648  1.0000
  O  Te48      1.0  0.79827  0.05778  0.52569  1.0000
  H   H312      1.0  0.72313  0.02951  0.45456  1.0000
  Mg  Mg24      1.0  0.81621  0.04110  0.53716  1.0000
