data_image0
_chemical_formula_structural       H84C132N24H84C132N24C2Sn2C2HTe2HMgC2Sn2C2HTe2HMgC2Sn2C2HTe2HMgC2Sn2C2HTe2HMgC2Sn2C2HTe2HMgC2Sn2C2HTe2HMgC2Sn2C2HTe2HMgC2Sn2C2HTe2HMgC2Sn2C2HTe2HMgC2Sn2C2HTe2HMgC2Sn2C2HTe2HMgC2Sn2C2HTe2HMgC2Sn2C2HTe2HMgC2Sn2C2HTe2HMgC2Sn2C2HTe2HMgC2Sn2C2HTe2HMgC2Sn2C2HTe2HMgC2Sn2C2HTe2HMgC2Sn2C2HTe2HMgC2Sn2C2HTe2HMgC2Sn2C2HTe2HMgC2Sn2C2HTe2HMgC2Sn2C2HTe2HMgC2Sn2C2HTe2HMgC2Sn2C2HTe2HMgC2Sn2C2HTe2HMgC2Sn2C2HTe2HMgC2Sn2C2HTe2HMgC2Sn2C2HTe2HMgC2Sn2C2HTe2HMgC2Sn2C2HTe2HMgC2Sn2C2HTe2HMgC2Sn2C2HTe2HMgC2Sn2C2HTe2HMgC2Sn2C2HTe2HMgC2Sn2C2HTe2HMgC2Sn2C2HTe2HMgC2Sn2C2HTe2HMgC2Sn2C2HTe2HMgC2Sn2C2HTe2HMgC2Sn2C2HTe2HMgC2Sn2C2HTe2HMgC2Sn2C2HTe2HMgC2Sn2C2HTe2HMgC2Sn2C2HTe2HMgC2Sn2C2HTe2HMgC2Sn2C2HTe2HMgC2Sn2C2HTe2HMg
_chemical_formula_sum              "H264 C456 N48 Sn96 Te96 Mg48"
_cell_length_a       64.3588
_cell_length_b       64.4356
_cell_length_c       8.12711
_cell_angle_alpha    107.803
_cell_angle_beta     54.7522
_cell_angle_gamma    119.95

_symmetry_space_group_name_H-M    'P1'
_space_group_IT_number       1

loop_
  _space_group_symop_operation_xyz
  'x, y, z'

loop_
  _atom_site_type_symbol
  _atom_site_label
  _atom_site_symmetry_multiplicity
  _atom_site_fract_x
  _atom_site_fract_y
  _atom_site_fract_z
  _atom_site_occupancy
  H   H1        1.0  0.19247  0.23662  0.88675  1.0000
  H   H2        1.0  0.13966  0.16114  0.94343  1.0000
  H   H3        1.0  0.21535  0.18910  0.95530  1.0000
  H   H4        1.0  0.14998  0.22120  0.87991  1.0000
  H   H5        1.0  0.24457  0.22837  0.92325  1.0000
  H   H6        1.0  0.12601  0.13302  0.11602  1.0000
  H   H7        1.0  0.11629  0.09462  0.20866  1.0000
  H   H8        1.0  0.15423  0.08818  0.16257  1.0000
  H   H9        1.0  0.21334  0.15639  0.88412  1.0000
  H   H10       1.0  0.19270  0.08086  0.96488  1.0000
  H   H11       1.0  0.26953  0.11286  0.96290  1.0000
  H   H12       1.0  0.23314  0.15759  0.02665  1.0000
  H   H13       1.0  0.21266  0.05585  0.92278  1.0000
  H   H14       1.0  0.29549  0.15611  0.95008  1.0000
  H   H15       1.0  0.37587  0.42499  0.05100  1.0000
  H   H16       1.0  0.43893  0.42586  0.97684  1.0000
  H   H17       1.0  0.47887  0.50275  0.02867  1.0000
  H   H18       1.0  0.40033  0.46925  0.05310  1.0000
  H   H19       1.0  0.46174  0.52702  0.03653  1.0000
  H   H20       1.0  0.45872  0.42677  0.10794  1.0000
  H   H21       1.0  0.54606  0.45028  0.87353  1.0000
  H   H22       1.0  0.55567  0.48870  0.78306  1.0000
  H   H23       1.0  0.51755  0.49563  0.83791  1.0000
  H   H24       1.0  0.45711  0.39382  0.02940  1.0000
  H   H25       1.0  0.48095  0.34692  0.09512  1.0000
  H   H26       1.0  0.53175  0.42287  0.05810  1.0000
  H   H27       1.0  0.42974  0.35303  0.03878  1.0000
  H   H28       1.0  0.52398  0.36194  0.08339  1.0000
  H   H29       1.0  0.25916  0.91507  0.08146  1.0000
  H   H30       1.0  0.20061  0.86086  0.04114  1.0000
  H   H31       1.0  0.23092  0.81214  0.00791  1.0000
  H   H32       1.0  0.27423  0.88749  0.07288  1.0000
  H   H33       1.0  0.26828  0.82463  0.03933  1.0000
  H   H34       1.0  0.17121  0.83206  0.98558  1.0000
  H   H35       1.0  0.13115  0.79617  0.98382  1.0000
  H   H36       1.0  0.12433  0.75588  0.00625  1.0000
  H   H37       1.0  0.19879  0.78684  0.03348  1.0000
  H   H38       1.0  0.12071  0.72383  0.01859  1.0000
  H   H39       1.0  0.15234  0.68089  0.04544  1.0000
  H   H40       1.0  0.19620  0.75735  0.04461  1.0000
  H   H41       1.0  0.09803  0.68206  0.99562  1.0000
  H   H42       1.0  0.19588  0.69877  0.03026  1.0000
  H   H43       1.0  0.47068  0.88147  0.97208  1.0000
  H   H44       1.0  0.39852  0.75360  0.94822  1.0000
  H   H45       1.0  0.39195  0.69178  0.95480  1.0000
  H   H46       1.0  0.46599  0.72087  0.98541  1.0000
  H   H47       1.0  0.43701  0.76775  0.97067  1.0000
  H   H48       1.0  0.47093  0.82379  0.96110  1.0000
  H   H49       1.0  0.54708  0.85686  0.97708  1.0000
  H   H50       1.0  0.51530  0.90014  0.95650  1.0000
  H   H51       1.0  0.49469  0.74909  0.03186  1.0000
  H   H52       1.0  0.53368  0.78497  0.04694  1.0000
  H   H53       1.0  0.54041  0.82527  0.02426  1.0000
  H   H54       1.0  0.47007  0.79389  0.94487  1.0000
  H   H55       1.0  0.95968  0.48306  0.98794  1.0000
  H   H56       1.0  0.90445  0.48945  0.99111  1.0000
  H   H57       1.0  0.85503  0.41282  0.01400  1.0000
  H   H58       1.0  0.93202  0.44141  0.99865  1.0000
  H   H59       1.0  0.87165  0.49375  0.04663  1.0000
  H   H60       1.0  0.83503  0.49770  0.05445  1.0000
  H   H61       1.0  0.79728  0.46242  0.01814  1.0000
  H   H62       1.0  0.83385  0.41786  0.95299  1.0000
  H   H63       1.0  0.76648  0.43253  0.99921  1.0000
  H   H64       1.0  0.73281  0.35678  0.88809  1.0000
  H   H65       1.0  0.80728  0.39044  0.91743  1.0000
  H   H66       1.0  0.75586  0.33315  0.84415  1.0000
  H   H67       1.0  0.86857  0.38609  0.02698  1.0000
  H   H68       1.0  0.80080  0.19272  0.00750  1.0000
  H   H69       1.0  0.91945  0.24529  0.11970  1.0000
  H   H70       1.0  0.73914  0.13797  0.98905  1.0000
  H   H71       1.0  0.76452  0.08916  0.01451  1.0000
  H   H72       1.0  0.81420  0.16560  0.99876  1.0000
  H   H73       1.0  0.86594  0.18851  0.04236  1.0000
  H   H74       1.0  0.89605  0.14391  0.07577  1.0000
  H   H75       1.0  0.93749  0.22034  0.10729  1.0000
  H   H76       1.0  0.83355  0.15998  0.07392  1.0000
  H   H77       1.0  0.79973  0.08515  0.92735  1.0000
  H   H78       1.0  0.83719  0.08125  0.90889  1.0000
  H   H79       1.0  0.87351  0.11624  0.96334  1.0000
  H   H80       1.0  0.71308  0.09545  0.97099  1.0000
  H   H81       1.0  0.57233  0.89732  0.96504  1.0000
  H   H82       1.0  0.93638  0.16113  0.10239  1.0000
  H   H83       1.0  0.41018  0.66516  0.94034  1.0000
  H   H84       1.0  0.72414  0.41491  0.02117  1.0000
  C   C1        1.0  0.18799  0.21846  0.90343  1.0000
  C   C2        1.0  0.16397  0.19892  0.91264  1.0000
  C   C3        1.0  0.15868  0.17567  0.93571  1.0000
  C   C4        1.0  0.17692  0.17155  0.95007  1.0000
  C   C5        1.0  0.20115  0.19138  0.93707  1.0000
  C   C6        1.0  0.20676  0.21470  0.91606  1.0000
  C   C7        1.0  0.14384  0.20272  0.90642  1.0000
  C   C8        1.0  0.23127  0.23414  0.92092  1.0000
  C   C9        1.0  0.17052  0.14778  0.99461  1.0000
  C   C10       1.0  0.14308  0.12983  0.08410  1.0000
  C   C11       1.0  0.13762  0.10832  0.13835  1.0000
  C   C12       1.0  0.15903  0.10449  0.10974  1.0000
  C   C13       1.0  0.18663  0.12214  0.02113  1.0000
  C   C14       1.0  0.19184  0.14323  0.96095  1.0000
  C   C15       1.0  0.20975  0.11948  0.99762  1.0000
  C   C16       1.0  0.20959  0.09688  0.97516  1.0000
  C   C17       1.0  0.23077  0.09443  0.96520  1.0000
  C   C18       1.0  0.25323  0.11500  0.97066  1.0000
  C   C19       1.0  0.25402  0.13762  0.98939  1.0000
  C   C20       1.0  0.23218  0.13969  0.00522  1.0000
  C   C21       1.0  0.22875  0.07055  0.95385  1.0000
  C   C22       1.0  0.27720  0.15887  0.99749  1.0000
  C   C23       1.0  0.39424  0.42300  0.01222  1.0000
  C   C24       1.0  0.41706  0.44503  0.01893  1.0000
  C   C25       1.0  0.43952  0.44360  0.99854  1.0000
  C   C26       1.0  0.46196  0.46406  0.00278  1.0000
  C   C27       1.0  0.46183  0.48645  0.02325  1.0000
  C   C28       1.0  0.43992  0.48839  0.03967  1.0000
  C   C29       1.0  0.41715  0.46749  0.04080  1.0000
  C   C30       1.0  0.44248  0.51233  0.04467  1.0000
  C   C31       1.0  0.48522  0.46155  0.97796  1.0000
  C   C32       1.0  0.48008  0.44022  0.03400  1.0000
  C   C33       1.0  0.50143  0.43561  0.99859  1.0000
  C   C34       1.0  0.52887  0.45355  0.90853  1.0000
  C   C35       1.0  0.53427  0.47517  0.85645  1.0000
  C   C36       1.0  0.51276  0.47926  0.88965  1.0000
  C   C37       1.0  0.49503  0.41176  0.04223  1.0000
  C   C38       1.0  0.47120  0.39167  0.04985  1.0000
  C   C39       1.0  0.46600  0.36845  0.06961  1.0000
  C   C40       1.0  0.48482  0.36506  0.08406  1.0000
  C   C41       1.0  0.50827  0.38479  0.08103  1.0000
  C   C42       1.0  0.51314  0.40806  0.06160  1.0000
  C   C43       1.0  0.44221  0.34825  0.06008  1.0000
  C   C44       1.0  0.52850  0.38082  0.08382  1.0000
  C   C45       1.0  0.24164  0.90109  0.06254  1.0000
  C   C46       1.0  0.23754  0.87648  0.05690  1.0000
  C   C47       1.0  0.21514  0.85682  0.04072  1.0000
  C   C48       1.0  0.21198  0.83325  0.02374  1.0000
  C   C49       1.0  0.23208  0.82999  0.02367  1.0000
  C   C50       1.0  0.25423  0.84917  0.04254  1.0000
  C   C51       1.0  0.25691  0.87261  0.05943  1.0000
  C   C52       1.0  0.27390  0.84384  0.04103  1.0000
  C   C53       1.0  0.18819  0.81222  0.01213  1.0000
  C   C54       1.0  0.16866  0.81450  0.99779  1.0000
  C   C55       1.0  0.14598  0.79417  0.99643  1.0000
  C   C56       1.0  0.14219  0.77126  0.00864  1.0000
  C   C57       1.0  0.16143  0.76822  0.02092  1.0000
  C   C58       1.0  0.18405  0.78897  0.02186  1.0000
  C   C59       1.0  0.15851  0.74429  0.03380  1.0000
  C   C60       1.0  0.13631  0.72302  0.03007  1.0000
  C   C61       1.0  0.13397  0.70035  0.03525  1.0000
  C   C62       1.0  0.15412  0.69861  0.04524  1.0000
  C   C63       1.0  0.17631  0.71939  0.04970  1.0000
  C   C64       1.0  0.17821  0.74195  0.04475  1.0000
  C   C65       1.0  0.11124  0.67891  0.02142  1.0000
  C   C66       1.0  0.19821  0.71725  0.04537  1.0000
  C   C67       1.0  0.46900  0.86324  0.95697  1.0000
  C   C68       1.0  0.49110  0.86164  0.95412  1.0000
  C   C69       1.0  0.39301  0.73462  0.95507  1.0000
  C   C70       1.0  0.41280  0.73027  0.96055  1.0000
  C   C71       1.0  0.40962  0.70707  0.96124  1.0000
  C   C72       1.0  0.42884  0.70412  0.97276  1.0000
  C   C73       1.0  0.45155  0.72430  0.97951  1.0000
  C   C74       1.0  0.45531  0.74761  0.97805  1.0000
  C   C75       1.0  0.43541  0.75009  0.96938  1.0000
  C   C76       1.0  0.48907  0.83911  0.95979  1.0000
  C   C77       1.0  0.50872  0.83660  0.96913  1.0000
  C   C78       1.0  0.53119  0.85770  0.96950  1.0000
  C   C79       1.0  0.53347  0.88045  0.96706  1.0000
  C   C80       1.0  0.51324  0.88241  0.95951  1.0000
  C   C81       1.0  0.47902  0.76880  0.98845  1.0000
  C   C82       1.0  0.50539  0.81265  0.98379  1.0000
  C   C83       1.0  0.49752  0.76658  0.01571  1.0000
  C   C84       1.0  0.51959  0.78693  0.02521  1.0000
  C   C85       1.0  0.52349  0.80977  0.01093  1.0000
  C   C86       1.0  0.48362  0.79193  0.97180  1.0000
  C   C87       1.0  0.94495  0.48794  0.99629  1.0000
  C   C88       1.0  0.92051  0.46768  0.99527  1.0000
  C   C89       1.0  0.90047  0.47107  0.99553  1.0000
  C   C90       1.0  0.87678  0.45166  0.99853  1.0000
  C   C91       1.0  0.87355  0.42848  0.00400  1.0000
  C   C92       1.0  0.89327  0.42467  0.00252  1.0000
  C   C93       1.0  0.91700  0.44450  0.99678  1.0000
  C   C94       1.0  0.85534  0.45511  0.00163  1.0000
  C   C95       1.0  0.85550  0.47781  0.02759  1.0000
  C   C96       1.0  0.83458  0.48002  0.03389  1.0000
  C   C97       1.0  0.81312  0.45998  0.01393  1.0000
  C   C98       1.0  0.81254  0.43706  0.98400  1.0000
  C   C99       1.0  0.83384  0.43536  0.97857  1.0000
  C   C100      1.0  0.79070  0.41512  0.95699  1.0000
  C   C101      1.0  0.76828  0.41567  0.96893  1.0000
  C   C102      1.0  0.74758  0.39492  0.94383  1.0000
  C   C103      1.0  0.74907  0.37278  0.90585  1.0000
  C   C104      1.0  0.77071  0.37163  0.89923  1.0000
  C   C105      1.0  0.79127  0.39270  0.92291  1.0000
  C   C106      1.0  0.77091  0.34848  0.88145  1.0000
  C   C107      1.0  0.88830  0.40033  0.01507  1.0000
  C   C108      1.0  0.78263  0.17912  0.99434  1.0000
  C   C109      1.0  0.77687  0.15429  0.00004  1.0000
  C   C110      1.0  0.90316  0.23066  0.09049  1.0000
  C   C111      1.0  0.90079  0.20669  0.08437  1.0000
  C   C112      1.0  0.75354  0.13467  0.99724  1.0000
  C   C113      1.0  0.74960  0.11134  0.00086  1.0000
  C   C114      1.0  0.76882  0.10761  0.00871  1.0000
  C   C115      1.0  0.79249  0.12681  0.00701  1.0000
  C   C116      1.0  0.79593  0.15007  0.00359  1.0000
  C   C117      1.0  0.87992  0.18588  0.06045  1.0000
  C   C118      1.0  0.87791  0.16295  0.05339  1.0000
  C   C119      1.0  0.89741  0.16135  0.07334  1.0000
  C   C120      1.0  0.91908  0.18190  0.08875  1.0000
  C   C121      1.0  0.92057  0.20460  0.09524  1.0000
  C   C122      1.0  0.81411  0.12326  0.99948  1.0000
  C   C123      1.0  0.85650  0.14119  0.02054  1.0000
  C   C124      1.0  0.83475  0.14282  0.03272  1.0000
  C   C125      1.0  0.81517  0.10082  0.95571  1.0000
  C   C126      1.0  0.83647  0.09867  0.94444  1.0000
  C   C127      1.0  0.85708  0.11853  0.97491  1.0000
  C   C128      1.0  0.72598  0.09092  0.98950  1.0000
  C   C129      1.0  0.55700  0.90138  0.97388  1.0000
  C   C130      1.0  0.94036  0.17946  0.09015  1.0000
  C   C131      1.0  0.42549  0.68014  0.97761  1.0000
  C   C132      1.0  0.72444  0.39713  0.96785  1.0000
  N   N1        1.0  0.23621  0.25637  0.92873  1.0000
  N   N2        1.0  0.12042  0.18522  0.93269  1.0000
  N   N3        1.0  0.27623  0.17959  0.05510  1.0000
  N   N4        1.0  0.24453  0.06716  0.98361  1.0000
  N   N5        1.0  0.39575  0.40250  0.96447  1.0000
  N   N6        1.0  0.43685  0.32643  0.07335  1.0000
  N   N7        1.0  0.22597  0.90562  0.03991  1.0000
  N   N8        1.0  0.29597  0.86050  0.04279  1.0000
  N   N9        1.0  0.21906  0.73563  0.05235  1.0000
  N   N10       1.0  0.37071  0.71746  0.95935  1.0000
  N   N11       1.0  0.44851  0.84434  0.94926  1.0000
  N   N12       1.0  0.10744  0.65768  0.03473  1.0000
  N   N13       1.0  0.94875  0.50986  0.00573  1.0000
  N   N14       1.0  0.78697  0.34625  0.91644  1.0000
  N   N15       1.0  0.90586  0.39619  0.01720  1.0000
  N   N16       1.0  0.76707  0.18444  0.97744  1.0000
  N   N17       1.0  0.88731  0.23428  0.06302  1.0000
  N   N18       1.0  0.72130  0.06915  0.99699  1.0000
  N   N19       1.0  0.55970  0.92302  0.98767  1.0000
  N   N20       1.0  0.96263  0.19783  0.07530  1.0000
  N   N21       1.0  0.42414  0.51592  0.04862  1.0000
  N   N22       1.0  0.44014  0.67705  0.02133  1.0000
  N   N23       1.0  0.55066  0.39843  0.07848  1.0000
  N   N24       1.0  0.70530  0.37957  0.93533  1.0000
  H   H85       1.0  0.20576  0.23353  0.38170  1.0000
  H   H86       1.0  0.15513  0.15756  0.42858  1.0000
  H   H87       1.0  0.22937  0.18785  0.46530  1.0000
  H   H88       1.0  0.16448  0.21814  0.37445  1.0000
  H   H89       1.0  0.25718  0.22888  0.44469  1.0000
  H   H90       1.0  0.14152  0.12967  0.59713  1.0000
  H   H91       1.0  0.13258  0.09086  0.67536  1.0000
  H   H92       1.0  0.17063  0.08451  0.62761  1.0000
  H   H93       1.0  0.22828  0.15520  0.39208  1.0000
  H   H94       1.0  0.20925  0.07847  0.44944  1.0000
  H   H95       1.0  0.28530  0.11171  0.46013  1.0000
  H   H96       1.0  0.24762  0.15521  0.52337  1.0000
  H   H97       1.0  0.22601  0.05394  0.44609  1.0000
  H   H98       1.0  0.30938  0.15570  0.46969  1.0000
  H   H99       1.0  0.39200  0.42921  0.48333  1.0000
  H   H100      1.0  0.45034  0.42676  0.46857  1.0000
  H   H101      1.0  0.48960  0.50349  0.53895  1.0000
  H   H102      1.0  0.41502  0.47115  0.50988  1.0000
  H   H103      1.0  0.46802  0.52836  0.58722  1.0000
  H   H104      1.0  0.47046  0.42820  0.61265  1.0000
  H   H105      1.0  0.55860  0.45084  0.34651  1.0000
  H   H106      1.0  0.56760  0.48895  0.25415  1.0000
  H   H107      1.0  0.52874  0.49563  0.31934  1.0000
  H   H108      1.0  0.46886  0.39500  0.53473  1.0000
  H   H109      1.0  0.49401  0.34837  0.58945  1.0000
  H   H110      1.0  0.54522  0.42423  0.53960  1.0000
  H   H111      1.0  0.43942  0.35534  0.57614  1.0000
  H   H112      1.0  0.53839  0.36384  0.56494  1.0000
  H   H113      1.0  0.27249  0.91372  0.60114  1.0000
  H   H114      1.0  0.21606  0.85841  0.55076  1.0000
  H   H115      1.0  0.25124  0.81172  0.47757  1.0000
  H   H116      1.0  0.29099  0.88716  0.56923  1.0000
  H   H117      1.0  0.29389  0.82701  0.45762  1.0000
  H   H118      1.0  0.19169  0.83065  0.45422  1.0000
  H   H119      1.0  0.15230  0.79489  0.44092  1.0000
  H   H120      1.0  0.14468  0.75454  0.47104  1.0000
  H   H121      1.0  0.21423  0.78565  0.56034  1.0000
  H   H122      1.0  0.13708  0.72281  0.52735  1.0000
  H   H123      1.0  0.16902  0.67910  0.54060  1.0000
  H   H124      1.0  0.21348  0.75543  0.53915  1.0000
  H   H125      1.0  0.11140  0.68217  0.54204  1.0000
  H   H126      1.0  0.21426  0.69799  0.52295  1.0000
  H   H127      1.0  0.49201  0.88706  0.46228  1.0000
  H   H128      1.0  0.41974  0.76150  0.44681  1.0000
  H   H129      1.0  0.41159  0.69919  0.45103  1.0000
  H   H130      1.0  0.48561  0.72534  0.47629  1.0000
  H   H131      1.0  0.45811  0.77464  0.47853  1.0000
  H   H132      1.0  0.49193  0.82895  0.45249  1.0000
  H   H133      1.0  0.56711  0.86259  0.48309  1.0000
  H   H134      1.0  0.53553  0.90538  0.45328  1.0000
  H   H135      1.0  0.51640  0.75408  0.51408  1.0000
  H   H136      1.0  0.55646  0.78980  0.51675  1.0000
  H   H137      1.0  0.56350  0.83021  0.49498  1.0000
  H   H138      1.0  0.48956  0.79960  0.46168  1.0000
  H   H139      1.0  0.97016  0.48560  0.53267  1.0000
  H   H140      1.0  0.91782  0.49100  0.49741  1.0000
  H   H141      1.0  0.87077  0.41434  0.48407  1.0000
  H   H142      1.0  0.94487  0.44272  0.50826  1.0000
  H   H143      1.0  0.88931  0.49565  0.50134  1.0000
  H   H144      1.0  0.85389  0.50018  0.49727  1.0000
  H   H145      1.0  0.81503  0.46504  0.47430  1.0000
  H   H146      1.0  0.84438  0.41916  0.48910  1.0000
  H   H147      1.0  0.78153  0.43593  0.49584  1.0000
  H   H148      1.0  0.74587  0.36041  0.38411  1.0000
  H   H149      1.0  0.82023  0.39186  0.41395  1.0000
  H   H150      1.0  0.76681  0.33539  0.34191  1.0000
  H   H151      1.0  0.88506  0.38769  0.47067  1.0000
  H   H152      1.0  0.81986  0.19852  0.47241  1.0000
  H   H153      1.0  0.94001  0.25056  0.54079  1.0000
  H   H154      1.0  0.75747  0.14314  0.49060  1.0000
  H   H155      1.0  0.78365  0.09492  0.51394  1.0000
  H   H156      1.0  0.83369  0.17140  0.48677  1.0000
  H   H157      1.0  0.88325  0.19280  0.54399  1.0000
  H   H158      1.0  0.91465  0.15012  0.58545  1.0000
  H   H159      1.0  0.95730  0.22681  0.57879  1.0000
  H   H160      1.0  0.84927  0.16451  0.60831  1.0000
  H   H161      1.0  0.82138  0.09214  0.39060  1.0000
  H   H162      1.0  0.85869  0.08785  0.37257  1.0000
  H   H163      1.0  0.89367  0.12243  0.44512  1.0000
  H   H164      1.0  0.72968  0.10158  0.50113  1.0000
  H   H165      1.0  0.58955  0.90431  0.50672  1.0000
  H   H166      1.0  0.95442  0.16727  0.60200  1.0000
  H   H167      1.0  0.42469  0.67152  0.45751  1.0000
  H   H168      1.0  0.74027  0.41968  0.50160  1.0000
  C   C133      1.0  0.20180  0.21555  0.39800  1.0000
  C   C134      1.0  0.17821  0.19565  0.40440  1.0000
  C   C135      1.0  0.17350  0.17258  0.42706  1.0000
  C   C136      1.0  0.19166  0.16930  0.44916  1.0000
  C   C137      1.0  0.21527  0.18964  0.44258  1.0000
  C   C138      1.0  0.22051  0.21264  0.41720  1.0000
  C   C139      1.0  0.15816  0.19952  0.39845  1.0000
  C   C140      1.0  0.24431  0.23319  0.42417  1.0000
  C   C141      1.0  0.18574  0.14549  0.48985  1.0000
  C   C142      1.0  0.15872  0.12685  0.56731  1.0000
  C   C143      1.0  0.15368  0.10496  0.61198  1.0000
  C   C144      1.0  0.17516  0.10126  0.58330  1.0000
  C   C145      1.0  0.20234  0.11961  0.50687  1.0000
  C   C146      1.0  0.20713  0.14127  0.45849  1.0000
  C   C147      1.0  0.22539  0.11712  0.48611  1.0000
  C   C148      1.0  0.22571  0.09471  0.46299  1.0000
  C   C149      1.0  0.24690  0.09264  0.45650  1.0000
  C   C150      1.0  0.26897  0.11353  0.46556  1.0000
  C   C151      1.0  0.26915  0.13603  0.48682  1.0000
  C   C152      1.0  0.24719  0.13750  0.49959  1.0000
  C   C153      1.0  0.24436  0.06864  0.45116  1.0000
  C   C154      1.0  0.29165  0.15798  0.49922  1.0000
  C   C155      1.0  0.40747  0.42546  0.47535  1.0000
  C   C156      1.0  0.42986  0.44651  0.49491  1.0000
  C   C157      1.0  0.45112  0.44457  0.48901  1.0000
  C   C158      1.0  0.47321  0.46487  0.49996  1.0000
  C   C159      1.0  0.47309  0.48744  0.52443  1.0000
  C   C160      1.0  0.45219  0.48974  0.52865  1.0000
  C   C161      1.0  0.43070  0.46911  0.51164  1.0000
  C   C162      1.0  0.45337  0.51343  0.54378  1.0000
  C   C163      1.0  0.49667  0.46219  0.47130  1.0000
  C   C164      1.0  0.49193  0.44120  0.52999  1.0000
  C   C165      1.0  0.51369  0.43659  0.48780  1.0000
  C   C166      1.0  0.54119  0.45421  0.38760  1.0000
  C   C167      1.0  0.54623  0.47556  0.33367  1.0000
  C   C168      1.0  0.52432  0.47957  0.37321  1.0000
  C   C169      1.0  0.50770  0.41304  0.53424  1.0000
  C   C170      1.0  0.48350  0.39298  0.54971  1.0000
  C   C171      1.0  0.47852  0.36977  0.56800  1.0000
  C   C172      1.0  0.49792  0.36646  0.57610  1.0000
  C   C173      1.0  0.52161  0.38629  0.56988  1.0000
  C   C174      1.0  0.52633  0.40938  0.54796  1.0000
  C   C175      1.0  0.45387  0.34997  0.56663  1.0000
  C   C176      1.0  0.54226  0.38266  0.57137  1.0000
  C   C177      1.0  0.25683  0.89937  0.56431  1.0000
  C   C178      1.0  0.25383  0.87514  0.55626  1.0000
  C   C179      1.0  0.23157  0.85507  0.54287  1.0000
  C   C180      1.0  0.22966  0.83184  0.51946  1.0000
  C   C181      1.0  0.25108  0.82929  0.50627  1.0000
  C   C182      1.0  0.27273  0.84893  0.52809  1.0000
  C   C183      1.0  0.27385  0.87198  0.55546  1.0000
  C   C184      1.0  0.29427  0.84499  0.51257  1.0000
  C   C185      1.0  0.20620  0.81067  0.50635  1.0000
  C   C186      1.0  0.18822  0.81307  0.47453  1.0000
  C   C187      1.0  0.16606  0.79283  0.46543  1.0000
  C   C188      1.0  0.16168  0.76993  0.48412  1.0000
  C   C189      1.0  0.17933  0.76688  0.51525  1.0000
  C   C190      1.0  0.20115  0.78756  0.52780  1.0000
  C   C191      1.0  0.17561  0.74286  0.53266  1.0000
  C   C192      1.0  0.15301  0.72180  0.53323  1.0000
  C   C193      1.0  0.15066  0.69894  0.53446  1.0000
  C   C194      1.0  0.17104  0.69689  0.53945  1.0000
  C   C195      1.0  0.19318  0.71761  0.54566  1.0000
  C   C196      1.0  0.19523  0.74020  0.54138  1.0000
  C   C197      1.0  0.12699  0.67805  0.52853  1.0000
  C   C198      1.0  0.21543  0.71612  0.54192  1.0000
  C   C199      1.0  0.48974  0.86868  0.45142  1.0000
  C   C200      1.0  0.51165  0.86684  0.44908  1.0000
  C   C201      1.0  0.41356  0.74251  0.46022  1.0000
  C   C202      1.0  0.43314  0.73750  0.46316  1.0000
  C   C203      1.0  0.42948  0.71399  0.45794  1.0000
  C   C204      1.0  0.44846  0.70988  0.46336  1.0000
  C   C205      1.0  0.47146  0.72947  0.47233  1.0000
  C   C206      1.0  0.47559  0.75315  0.47798  1.0000
  C   C207      1.0  0.45601  0.75666  0.47311  1.0000
  C   C208      1.0  0.50990  0.84431  0.45311  1.0000
  C   C209      1.0  0.52956  0.84198  0.46451  1.0000
  C   C210      1.0  0.55152  0.86330  0.47070  1.0000
  C   C211      1.0  0.55374  0.88594  0.46585  1.0000
  C   C212      1.0  0.53372  0.88769  0.45438  1.0000
  C   C213      1.0  0.49973  0.77407  0.48577  1.0000
  C   C214      1.0  0.52673  0.81803  0.47627  1.0000
  C   C215      1.0  0.51912  0.77167  0.50103  1.0000
  C   C216      1.0  0.54181  0.79192  0.50284  1.0000
  C   C217      1.0  0.54575  0.81489  0.49049  1.0000
  C   C218      1.0  0.50416  0.79735  0.47422  1.0000
  C   C219      1.0  0.95741  0.48975  0.50951  1.0000
  C   C220      1.0  0.93374  0.46910  0.50078  1.0000
  C   C221      1.0  0.91411  0.47256  0.49634  1.0000
  C   C222      1.0  0.89087  0.45325  0.49273  1.0000
  C   C223      1.0  0.88818  0.43008  0.48948  1.0000
  C   C224      1.0  0.90726  0.42618  0.49523  1.0000
  C   C225      1.0  0.93027  0.44589  0.50160  1.0000
  C   C226      1.0  0.86962  0.45677  0.49479  1.0000
  C   C227      1.0  0.87184  0.47975  0.49845  1.0000
  C   C228      1.0  0.85176  0.48230  0.49620  1.0000
  C   C229      1.0  0.82952  0.46233  0.48562  1.0000
  C   C230      1.0  0.82675  0.43909  0.48014  1.0000
  C   C231      1.0  0.84676  0.43701  0.48878  1.0000
  C   C232      1.0  0.80449  0.41735  0.45635  1.0000
  C   C233      1.0  0.78263  0.41876  0.46646  1.0000
  C   C234      1.0  0.76174  0.39853  0.43990  1.0000
  C   C235      1.0  0.76231  0.37600  0.40307  1.0000
  C   C236      1.0  0.78332  0.37395  0.39761  1.0000
  C   C237      1.0  0.80436  0.39460  0.42150  1.0000
  C   C238      1.0  0.78208  0.35016  0.38027  1.0000
  C   C239      1.0  0.90210  0.40144  0.49611  1.0000
  C   C240      1.0  0.80053  0.18400  0.47991  1.0000
  C   C241      1.0  0.79565  0.15977  0.49418  1.0000
  C   C242      1.0  0.92068  0.23484  0.56097  1.0000
  C   C243      1.0  0.91926  0.21190  0.57007  1.0000
  C   C244      1.0  0.77212  0.13998  0.49670  1.0000
  C   C245      1.0  0.76831  0.11678  0.50057  1.0000
  C   C246      1.0  0.78782  0.11326  0.50600  1.0000
  C   C247      1.0  0.81140  0.13264  0.50415  1.0000
  C   C248      1.0  0.81500  0.15593  0.49732  1.0000
  C   C249      1.0  0.89761  0.19070  0.56111  1.0000
  C   C250      1.0  0.89571  0.16812  0.56128  1.0000
  C   C251      1.0  0.91588  0.16731  0.57795  1.0000
  C   C252      1.0  0.93796  0.18825  0.58433  1.0000
  C   C253      1.0  0.93979  0.21070  0.57773  1.0000
  C   C254      1.0  0.83283  0.12903  0.49834  1.0000
  C   C255      1.0  0.87433  0.14640  0.52941  1.0000
  C   C256      1.0  0.85198  0.14795  0.54953  1.0000
  C   C257      1.0  0.83553  0.10716  0.43485  1.0000
  C   C258      1.0  0.85691  0.10489  0.42145  1.0000
  C   C259      1.0  0.87651  0.12433  0.46465  1.0000
  C   C260      1.0  0.74418  0.09665  0.49540  1.0000
  C   C261      1.0  0.57646  0.90738  0.47922  1.0000
  C   C262      1.0  0.95897  0.18575  0.58860  1.0000
  C   C263      1.0  0.44321  0.68510  0.46597  1.0000
  C   C264      1.0  0.73942  0.40146  0.45841  1.0000
  N   N25       1.0  0.24927  0.25482  0.40926  1.0000
  N   N26       1.0  0.13468  0.18228  0.42323  1.0000
  N   N27       1.0  0.29073  0.17867  0.53897  1.0000
  N   N28       1.0  0.26168  0.06505  0.46149  1.0000
  N   N29       1.0  0.40626  0.40414  0.44978  1.0000
  N   N30       1.0  0.44995  0.32792  0.55175  1.0000
  N   N31       1.0  0.24239  0.90334  0.52434  1.0000
  N   N32       1.0  0.31257  0.86175  0.55690  1.0000
  N   N33       1.0  0.23552  0.73519  0.55324  1.0000
  N   N34       1.0  0.39084  0.72545  0.47042  1.0000
  N   N35       1.0  0.46890  0.84994  0.44720  1.0000
  N   N36       1.0  0.12450  0.65637  0.50911  1.0000
  N   N37       1.0  0.96252  0.51138  0.49365  1.0000
  N   N38       1.0  0.79753  0.34696  0.41525  1.0000
  N   N39       1.0  0.91706  0.39630  0.52137  1.0000
  N   N40       1.0  0.78296  0.18756  0.47308  1.0000
  N   N41       1.0  0.90055  0.23627  0.57169  1.0000
  N   N42       1.0  0.74049  0.07474  0.48399  1.0000
  N   N43       1.0  0.58052  0.92855  0.46181  1.0000
  N   N44       1.0  0.98160  0.20362  0.57323  1.0000
  N   N45       1.0  0.43807  0.51653  0.50678  1.0000
  N   N46       1.0  0.45885  0.67989  0.48309  1.0000
  N   N47       1.0  0.56404  0.40040  0.57117  1.0000
  N   N48       1.0  0.71985  0.38390  0.43049  1.0000
  C   C265      1.0  0.07093  0.16468  0.93740  1.0000
  C   C266      1.0  0.09551  0.18333  0.92559  1.0000
  C  Sn1       1.0  0.09923  0.20712  0.94904  1.0000
  C  Sn2       1.0  0.07790  0.21229  0.98501  1.0000
  C   C267      1.0  0.05338  0.19350  0.99671  1.0000
  C   C268      1.0  0.04988  0.16975  0.97295  1.0000
  H   H169      1.0  0.06821  0.14631  0.91913  1.0000
  O  Te1       1.0  0.12392  0.22554  0.93673  1.0000
  O  Te2       1.0  0.15246  0.23294  0.00909  1.0000
  H   H170      1.0  0.03084  0.15532  0.98223  1.0000
  Mg  Mg1       1.0  0.11847  0.25483  0.97960  1.0000
  C   C269      1.0  0.28931  0.27569  0.90303  1.0000
  C   C270      1.0  0.26422  0.27365  0.94162  1.0000
  C  Sn3       1.0  0.26011  0.29417  0.97235  1.0000
  C  Sn4       1.0  0.28155  0.31713  0.96415  1.0000
  C   C271      1.0  0.30659  0.31897  0.92531  1.0000
  C   C272      1.0  0.31048  0.29832  0.89485  1.0000
  H   H171      1.0  0.29233  0.25971  0.87935  1.0000
  O  Te3       1.0  0.30630  0.28886  0.01080  1.0000
  O  Te4       1.0  0.27800  0.33793  0.99424  1.0000
  H   H172      1.0  0.32992  0.29990  0.86485  1.0000
  Mg  Mg2       1.0  0.31136  0.32250  0.04186  1.0000
  C   C273      1.0  0.02014  0.21610  0.11294  1.0000
  C   C274      1.0  0.02823  0.19713  0.03993  1.0000
  C  Sn5       1.0  0.94322  0.17946  0.95756  1.0000
  C  Sn6       1.0  0.92111  0.17786  0.94827  1.0000
  C   C275      1.0  0.98459  0.19398  0.02158  1.0000
  C   C276      1.0  0.99834  0.21453  0.10376  1.0000
  H   H173      1.0  0.03079  0.23200  0.17642  1.0000
  O  Te5       1.0  0.95156  0.16067  0.88537  1.0000
  O  Te6       1.0  0.90716  0.15746  0.86664  1.0000
  H   H174      1.0  0.99209  0.22922  0.16015  1.0000
  Mg  Mg3       1.0  0.92614  0.13659  0.78785  1.0000
  C   C277      1.0  0.33655  0.36778  0.91707  1.0000
  C   C278      1.0  0.33145  0.34407  0.91966  1.0000
  C  Sn7       1.0  0.34785  0.33907  0.94896  1.0000
  C  Sn8       1.0  0.36975  0.35820  0.97618  1.0000
  C   C279      1.0  0.37467  0.38186  0.97348  1.0000
  C   C280      1.0  0.35813  0.38665  0.94399  1.0000
  H   H175      1.0  0.32374  0.37149  0.89436  1.0000
  O  Te7       1.0  0.34248  0.31528  0.95105  1.0000
  O  Te8       1.0  0.45786  0.35075  0.00582  1.0000
  H   H176      1.0  0.36208  0.40501  0.94212  1.0000
  Mg  Mg4       1.0  0.37098  0.31828  0.99659  1.0000
  C   C281      1.0  0.33767  0.21288  0.07766  1.0000
  C   C282      1.0  0.34524  0.23650  0.04887  1.0000
  C  Sn9       1.0  0.32788  0.24205  0.03535  1.0000
  C  Sn10      1.0  0.30249  0.22358  0.05106  1.0000
  C   C283      1.0  0.29510  0.20002  0.07999  1.0000
  C   C284      1.0  0.31262  0.19466  0.09325  1.0000
  H   H177      1.0  0.35122  0.20874  0.08803  1.0000
  O  Te9       1.0  0.33576  0.26573  0.00650  1.0000
  O  Te10      1.0  0.28475  0.22863  0.03815  1.0000
  H   H178      1.0  0.30675  0.17638  0.11567  1.0000
  Mg  Mg5       1.0  0.23321  0.26662  0.99833  1.0000
  C   C285      1.0  0.39490  0.26634  0.08172  1.0000
  C   C286      1.0  0.37262  0.26358  0.07268  1.0000
  C  Sn11      1.0  0.37164  0.28349  0.04694  1.0000
  C  Sn12      1.0  0.39341  0.30655  0.02992  1.0000
  C   C287      1.0  0.41562  0.30911  0.03900  1.0000
  C   C288      1.0  0.41638  0.28907  0.06486  1.0000
  H   H179      1.0  0.39550  0.25083  0.10161  1.0000
  O  Te11      1.0  0.34922  0.28042  0.03831  1.0000
  O  Te12      1.0  0.39296  0.32674  0.00402  1.0000
  H   H180      1.0  0.43365  0.29121  0.07172  1.0000
  Mg  Mg6       1.0  0.35797  0.31340  0.00142  1.0000
  C   C289      1.0  0.26439  0.03879  0.99763  1.0000
  C   C290      1.0  0.24761  0.04399  0.97421  1.0000
  C  Sn13      1.0  0.22426  0.02552  0.96690  1.0000
  C  Sn14      1.0  0.71748  0.00141  0.98344  1.0000
  C   C291      1.0  0.80579  0.99344  0.00697  1.0000
  C   C292      1.0  0.32927  0.01206  0.01403  1.0000
  H   H181      1.0  0.35382  0.05023  0.00321  1.0000
  O  Te13      1.0  0.20772  0.03103  0.94336  1.0000
  O  Te14      1.0  0.69426  0.98261  0.97669  1.0000
  H   H182      1.0  0.34224  0.00802  0.03230  1.0000
  Mg  Mg7       1.0  0.67812  0.99920  0.94260  1.0000
  C   C293      1.0  0.20781  0.93482  0.01863  1.0000
  C   C294      1.0  0.22627  0.92914  0.01663  1.0000
  C  Sn15      1.0  0.25015  0.94734  0.01832  1.0000
  C  Sn16      1.0  0.25559  0.97165  0.02213  1.0000
  C   C295      1.0  0.23698  0.97714  0.02425  1.0000
  C   C296      1.0  0.21315  0.95879  0.02247  1.0000
  H   H183      1.0  0.18937  0.92062  0.01737  1.0000
  O  Te15      1.0  0.26837  0.94136  0.01621  1.0000
  O  Te16      1.0  0.27929  0.99020  0.02396  1.0000
  H   H184      1.0  0.19886  0.96319  0.02415  1.0000
  Mg  Mg8       1.0  0.29788  0.97298  0.01987  1.0000
  C   C297      1.0  0.28457  0.75473  0.97485  1.0000
  C   C298      1.0  0.35668  0.73271  0.01648  1.0000
  C  Sn17      1.0  0.33347  0.71062  0.07168  1.0000
  C  Sn18      1.0  0.30914  0.70761  0.08525  1.0000
  C   C299      1.0  0.30864  0.72678  0.04316  1.0000
  C   C300      1.0  0.26057  0.75177  0.98813  1.0000
  H   H185      1.0  0.30262  0.77177  0.93216  1.0000
  O  Te17      1.0  0.33453  0.69177  0.11284  1.0000
  O  Te18      1.0  0.28565  0.68572  0.14001  1.0000
  H   H186      1.0  0.26002  0.76652  0.95577  1.0000
  Mg  Mg9       1.0  0.29723  0.66539  0.18147  1.0000
  C   C301      1.0  0.31999  0.82881  0.97427  1.0000
  C   C302      1.0  0.38480  0.84563  0.03872  1.0000
  C  Sn19      1.0  0.40162  0.86729  0.09012  1.0000
  C  Sn20      1.0  0.42548  0.86914  0.07653  1.0000
  C   C303      1.0  0.43190  0.84926  0.01175  1.0000
  C   C304      1.0  0.34352  0.83062  0.96076  1.0000
  H   H187      1.0  0.30686  0.81211  0.93470  1.0000
  O  Te19      1.0  0.39473  0.88687  0.15429  1.0000
  O  Te20      1.0  0.44266  0.89058  0.12690  1.0000
  H   H188      1.0  0.34864  0.81532  0.91073  1.0000
  Mg  Mg10      1.0  0.42459  0.91225  0.20633  1.0000
  C   C305      1.0  0.31295  0.70127  0.93346  1.0000
  C   C306      1.0  0.30711  0.72135  0.98869  1.0000
  C  Sn21      1.0  0.39627  0.74043  0.02842  1.0000
  C  Sn22      1.0  0.42031  0.74234  0.01238  1.0000
  C   C307      1.0  0.35459  0.72511  0.95688  1.0000
  C   C308      1.0  0.33667  0.70315  0.91752  1.0000
  H   H189      1.0  0.29910  0.68428  0.90290  1.0000
  O  Te21      1.0  0.39011  0.76031  0.08350  1.0000
  O  Te22      1.0  0.43842  0.76415  0.05117  1.0000
  H   H190      1.0  0.34121  0.68761  0.87463  1.0000
  Mg  Mg11      1.0  0.42112  0.78613  0.12120  1.0000
  C   C309      1.0  0.38273  0.82273  0.02144  1.0000
  C   C310      1.0  0.37975  0.84218  0.00952  1.0000
  C  Sn23      1.0  0.33092  0.86762  0.95620  1.0000
  C  Sn24      1.0  0.35693  0.87063  0.91406  1.0000
  C   C311      1.0  0.35971  0.85106  0.92626  1.0000
  C   C312      1.0  0.33699  0.82864  0.97982  1.0000
  H   H191      1.0  0.36516  0.80539  0.06277  1.0000
  O  Te23      1.0  0.32757  0.88686  0.94507  1.0000
  O  Te24      1.0  0.37983  0.89290  0.86034  1.0000
  H   H192      1.0  0.33932  0.81359  0.98891  1.0000
  Mg  Mg12      1.0  0.36491  0.91368  0.86557  1.0000
  C   C313      1.0  0.08335  0.60841  0.98557  1.0000
  C   C314      1.0  0.15725  0.62896  0.01704  1.0000
  C  Sn25      1.0  0.13515  0.63346  0.06621  1.0000
  C  Sn26      1.0  0.11010  0.61403  0.08415  1.0000
  C   C315      1.0  0.10779  0.59057  0.05252  1.0000
  C   C316      1.0  0.13004  0.58627  0.00331  1.0000
  H   H193      1.0  0.10056  0.60508  0.94761  1.0000
  O  Te25      1.0  0.13801  0.65706  0.09708  1.0000
  O  Te26      1.0  0.08769  0.61802  0.13321  1.0000
  H   H194      1.0  0.05669  0.57103  0.97909  1.0000
  Mg  Mg13      1.0  0.10164  0.65336  0.16092  1.0000
  C   C317      1.0  0.00855  0.54230  0.05421  1.0000
  C   C318      1.0  0.01742  0.56584  0.01455  1.0000
  C  Sn27      1.0  0.93080  0.57437  0.97654  1.0000
  C  Sn28      1.0  0.90626  0.55600  0.97842  1.0000
  C   C319      1.0  0.96895  0.52954  0.01840  1.0000
  C   C320      1.0  0.98434  0.52417  0.05617  1.0000
  H   H195      1.0  0.02045  0.53814  0.08355  1.0000
  O  Te27      1.0  0.93996  0.59798  0.93711  1.0000
  O  Te28      1.0  0.89064  0.56107  0.94100  1.0000
  H   H196      1.0  0.97746  0.50594  0.08700  1.0000
  Mg  Mg14      1.0  0.91160  0.59597  0.89494  1.0000
  C   C321      1.0  0.80691  0.31870  0.94570  1.0000
  C   C322      1.0  0.79073  0.32339  0.91137  1.0000
  C  Sn29      1.0  0.76701  0.30474  0.91031  1.0000
  C  Sn30      1.0  0.75939  0.28098  0.94435  1.0000
  C   C323      1.0  0.77570  0.27648  0.97869  1.0000
  C   C324      1.0  0.79940  0.29528  0.97936  1.0000
  H   H197      1.0  0.82524  0.33324  0.94633  1.0000
  O  Te29      1.0  0.75109  0.30973  0.87570  1.0000
  O  Te30      1.0  0.73578  0.26201  0.94417  1.0000
  H   H198      1.0  0.88330  0.28869  0.00607  1.0000
  Mg  Mg15      1.0  0.72077  0.27785  0.88994  1.0000
  C   C325      1.0  0.87929  0.34489  0.98140  1.0000
  C   C326      1.0  0.96601  0.36467  0.03283  1.0000
  C  Sn31      1.0  0.98450  0.36764  0.08580  1.0000
  C  Sn32      1.0  0.98768  0.34744  0.08712  1.0000
  C   C327      1.0  0.97227  0.32477  0.03529  1.0000
  C   C328      1.0  0.88242  0.32495  0.98259  1.0000
  H   H199      1.0  0.86502  0.34274  0.94052  1.0000
  O  Te31      1.0  0.99964  0.39049  0.13684  1.0000
  O  Te32      1.0  0.00603  0.34991  0.13938  1.0000
  H   H200      1.0  0.87057  0.30734  0.94266  1.0000
  Mg  Mg16      1.0  0.02203  0.38471  0.19740  1.0000
  C   C329      1.0  0.74871  0.22738  0.00365  1.0000
  C   C330      1.0  0.69834  0.25287  0.99893  1.0000
  C  Sn33      1.0  0.72283  0.25480  0.97018  1.0000
  C  Sn34      1.0  0.72628  0.23375  0.94569  1.0000
  C   C331      1.0  0.70513  0.21130  0.95051  1.0000
  C   C332      1.0  0.68070  0.20957  0.97944  1.0000
  H   H201      1.0  0.72981  0.22605  0.02592  1.0000
  O  Te33      1.0  0.74363  0.27745  0.96593  1.0000
  O  Te34      1.0  0.75056  0.23516  0.91665  1.0000
  H   H202      1.0  0.66443  0.19213  0.98296  1.0000
  Mg  Mg17      1.0  0.77293  0.27010  0.92225  1.0000
  C   C333      1.0  0.86756  0.27556  0.06996  1.0000
  C   C334      1.0  0.88740  0.29845  0.07540  1.0000
  C  Sn35      1.0  0.91125  0.30125  0.06287  1.0000
  C  Sn36      1.0  0.91524  0.28072  0.04450  1.0000
  C   C335      1.0  0.89527  0.25790  0.03906  1.0000
  C   C336      1.0  0.87149  0.25530  0.05178  1.0000
  H   H203      1.0  0.84916  0.27355  0.07969  1.0000
  O  Te35      1.0  0.93086  0.32425  0.06860  1.0000
  O  Te36      1.0  0.93888  0.28300  0.03162  1.0000
  H   H204      1.0  0.85614  0.23758  0.04743  1.0000
  Mg  Mg18      1.0  0.95967  0.31812  0.04606  1.0000
  C   C337      1.0  0.61951  0.95581  0.03492  1.0000
  C   C338      1.0  0.55753  0.98210  0.98722  1.0000
  C  Sn37      1.0  0.54232  0.98759  0.94842  1.0000
  C  Sn38      1.0  0.51723  0.96934  0.95772  1.0000
  C   C339      1.0  0.57938  0.94310  0.00571  1.0000
  C   C340      1.0  0.59476  0.93781  0.04420  1.0000
  H   H205      1.0  0.63140  0.95171  0.06482  1.0000
  O  Te37      1.0  0.05219  0.01098  0.90091  1.0000
  O  Te38      1.0  0.50162  0.97433  0.91969  1.0000
  H   H206      1.0  0.58746  0.91975  0.08126  1.0000
  Mg  Mg19      1.0  0.02360  0.00894  0.86120  1.0000
  C   C341      1.0  0.45263  0.56732  0.06444  1.0000
  C   C342      1.0  0.43268  0.54438  0.06142  1.0000
  C  Sn39      1.0  0.41224  0.54132  0.02883  1.0000
  C  Sn40      1.0  0.34041  0.56460  0.99870  1.0000
  C   C343      1.0  0.43187  0.58451  0.00186  1.0000
  C   C344      1.0  0.45224  0.58736  0.03466  1.0000
  H   H207      1.0  0.46840  0.56953  0.08971  1.0000
  O  Te39      1.0  0.39245  0.51828  0.02635  1.0000
  O  Te40      1.0  0.32022  0.56205  0.96574  1.0000
  H   H208      1.0  0.46769  0.60512  0.03686  1.0000
  Mg  Mg20      1.0  0.29771  0.52698  0.97577  1.0000
  C   C345      1.0  0.46264  0.64831  0.99403  1.0000
  C   C346      1.0  0.51412  0.65092  0.01673  1.0000
  C  Sn41      1.0  0.48783  0.63292  0.05635  1.0000
  C  Sn42      1.0  0.48142  0.60890  0.07354  1.0000
  C   C347      1.0  0.50148  0.60351  0.05073  1.0000
  C   C348      1.0  0.52773  0.62166  0.01104  1.0000
  H   H209      1.0  0.48294  0.66236  0.96343  1.0000
  O  Te41      1.0  0.46818  0.63880  0.07853  1.0000
  O  Te42      1.0  0.45531  0.59056  0.11316  1.0000
  H   H210      1.0  0.47174  0.62030  0.99360  1.0000
  Mg  Mg21      1.0  0.43550  0.60753  0.13123  1.0000
  C   C349      1.0  0.56924  0.36903  0.12112  1.0000
  C   C350      1.0  0.56857  0.38890  0.09168  1.0000
  C  Sn43      1.0  0.59275  0.41019  0.02149  1.0000
  C  Sn44      1.0  0.54665  0.41452  0.98008  1.0000
  C   C351      1.0  0.61850  0.39158  0.00988  1.0000
  C   C352      1.0  0.59418  0.37036  0.08024  1.0000
  H   H211      1.0  0.55043  0.35260  0.17545  1.0000
  O  Te43      1.0  0.52031  0.43284  0.99298  1.0000
  O  Te44      1.0  0.57112  0.43558  0.90971  1.0000
  H   H212      1.0  0.59471  0.35497  0.10289  1.0000
  Mg  Mg22      1.0  0.55916  0.45758  0.89470  1.0000
  C   C353      1.0  0.68289  0.40958  0.95257  1.0000
  C   C354      1.0  0.68473  0.38937  0.96316  1.0000
  C  Sn45      1.0  0.66271  0.36677  0.99062  1.0000
  C  Sn46      1.0  0.70981  0.36146  0.00768  1.0000
  C   C355      1.0  0.63678  0.38476  0.99675  1.0000
  C   C356      1.0  0.65894  0.40728  0.96931  1.0000
  H   H213      1.0  0.70004  0.42701  0.93123  1.0000
  O  Te45      1.0  0.73629  0.34380  0.00095  1.0000
  O  Te46      1.0  0.68749  0.33909  0.03512  1.0000
  H   H214      1.0  0.65751  0.42293  0.96098  1.0000
  Mg  Mg23      1.0  0.70034  0.31715  0.03974  1.0000
  C   C357      1.0  0.65543  0.03637  0.03500  1.0000
  C   C358      1.0  0.58128  0.01567  0.99247  1.0000
  C  Sn47      1.0  0.60188  0.01008  0.95789  1.0000
  C  Sn48      1.0  0.62565  0.02855  0.96619  1.0000
  C   C359      1.0  0.69959  0.04919  0.00900  1.0000
  C   C360      1.0  0.67886  0.05459  0.04330  1.0000
  H   H215      1.0  0.63938  0.04054  0.06165  1.0000
  O  Te47      1.0  0.09865  0.98635  0.91552  1.0000
  O  Te48      1.0  0.64655  0.02345  0.93231  1.0000
  H   H216      1.0  0.68098  0.07290  0.07636  1.0000
  Mg  Mg24      1.0  0.13274  0.98838  0.88013  1.0000
  C   C361      1.0  0.08368  0.16347  0.45325  1.0000
  C   C362      1.0  0.11001  0.18112  0.41640  1.0000
  C  Sn49      1.0  0.11678  0.20515  0.40724  1.0000
  C  Sn50      1.0  0.09677  0.21157  0.43563  1.0000
  C   C363      1.0  0.07048  0.19378  0.47256  1.0000
  C   C364      1.0  0.06393  0.16979  0.48135  1.0000
  H   H217      1.0  0.07860  0.14491  0.46017  1.0000
  O  Te49      1.0  0.14318  0.22256  0.37020  1.0000
  O  Te50      1.0  0.10298  0.23545  0.42732  1.0000
  H   H218      1.0  0.04353  0.15613  0.51002  1.0000
  Mg  Mg25      1.0  0.14179  0.25268  0.37271  1.0000
  C   C365      1.0  0.30869  0.28873  0.46151  1.0000
  C   C366      1.0  0.31641  0.31220  0.42796  1.0000
  C  Sn51      1.0  0.30028  0.31722  0.39577  1.0000
  C  Sn52      1.0  0.27596  0.29836  0.39734  1.0000
  C   C367      1.0  0.26840  0.27494  0.43118  1.0000
  C   C368      1.0  0.28471  0.27012  0.46315  1.0000
  H   H219      1.0  0.32129  0.28500  0.48636  1.0000
  O  Te51      1.0  0.30830  0.34076  0.36242  1.0000
  O  Te52      1.0  0.25945  0.30287  0.36566  1.0000
  H   H220      1.0  0.27871  0.25195  0.48925  1.0000
  Mg  Mg26      1.0  0.27901  0.33791  0.32670  1.0000
  C   C369      1.0  0.01121  0.17483  0.43557  1.0000
  C   C370      1.0  0.00210  0.19315  0.53612  1.0000
  C  Sn53      1.0  0.01683  0.21313  0.61559  1.0000
  C  Sn54      1.0  0.04111  0.21475  0.59370  1.0000
  C   C371      1.0  0.05006  0.19633  0.49273  1.0000
  C   C372      1.0  0.03517  0.17642  0.41385  1.0000
  H   H221      1.0  0.99970  0.15943  0.37444  1.0000
  O  Te53      1.0  0.00743  0.23127  0.71568  1.0000
  O  Te54      1.0  0.05623  0.23452  0.67160  1.0000
  H   H222      1.0  0.04224  0.16225  0.33589  1.0000
  Mg  Mg27      1.0  0.03510  0.25463  0.79575  1.0000
  C   C373      1.0  0.35416  0.38106  0.45759  1.0000
  C   C374      1.0  0.37756  0.38469  0.45620  1.0000
  C  Sn55      1.0  0.38272  0.36519  0.43704  1.0000
  C  Sn56      1.0  0.36409  0.34164  0.41890  1.0000
  C   C375      1.0  0.34075  0.33820  0.42031  1.0000
  C   C376      1.0  0.33577  0.35784  0.43963  1.0000
  H   H223      1.0  0.35031  0.39626  0.47242  1.0000
  O  Te55      1.0  0.40619  0.36914  0.43600  1.0000
  O  Te56      1.0  0.36876  0.32183  0.39948  1.0000
  H   H224      1.0  0.31766  0.35502  0.44057  1.0000
  Mg  Mg28      1.0  0.40361  0.33638  0.40606  1.0000
  C   C377      1.0  0.31767  0.22839  0.53593  1.0000
  C   C378      1.0  0.31284  0.20487  0.54202  1.0000
  C  Sn57      1.0  0.32987  0.20044  0.56848  1.0000
  C  Sn58      1.0  0.35214  0.21995  0.58922  1.0000
  C   C379      1.0  0.35679  0.24341  0.58306  1.0000
  C   C380      1.0  0.33962  0.24764  0.55645  1.0000
  H   H225      1.0  0.30438  0.23166  0.51546  1.0000
  O  Te57      1.0  0.32476  0.17683  0.57414  1.0000
  O  Te58      1.0  0.36948  0.21603  0.61590  1.0000
  H   H226      1.0  0.34336  0.26585  0.55187  1.0000
  Mg  Mg29      1.0  0.35413  0.18065  0.61352  1.0000
  C   C381      1.0  0.39808  0.30698  0.55485  1.0000
  C   C382      1.0  0.42049  0.30979  0.56249  1.0000
  C  Sn59      1.0  0.42389  0.28974  0.55661  1.0000
  C  Sn60      1.0  0.40445  0.26646  0.54278  1.0000
  C   C383      1.0  0.38211  0.26383  0.53508  1.0000
  C   C384      1.0  0.37891  0.28402  0.54113  1.0000
  H   H227      1.0  0.39561  0.32260  0.55941  1.0000
  O  Te59      1.0  0.44639  0.29287  0.56446  1.0000
  O  Te60      1.0  0.40735  0.24611  0.53658  1.0000
  H   H228      1.0  0.36156  0.28184  0.53508  1.0000
  Mg  Mg30      1.0  0.44144  0.25961  0.55152  1.0000
  C   C385      1.0  0.73227  0.00161  0.45574  1.0000
  C   C386      1.0  0.24964  0.99635  0.46965  1.0000
  C  Sn61      1.0  0.77185  0.01482  0.49291  1.0000
  C  Sn62      1.0  0.77638  0.03897  0.50242  1.0000
  C   C387      1.0  0.75872  0.04405  0.48851  1.0000
  C   C388      1.0  0.73671  0.02543  0.46519  1.0000
  H   H229      1.0  0.21507  0.98721  0.43781  1.0000
  O  Te61      1.0  0.78918  0.00925  0.50648  1.0000
  O  Te62      1.0  0.79827  0.05778  0.52569  1.0000
  H   H230      1.0  0.72313  0.02951  0.45456  1.0000
  Mg  Mg31      1.0  0.81621  0.04110  0.53716  1.0000
  C   C389      1.0  0.22310  0.93242  0.51409  1.0000
  C   C390      1.0  0.24193  0.92672  0.50648  1.0000
  C  Sn63      1.0  0.26620  0.94490  0.50269  1.0000
  C  Sn64      1.0  0.27165  0.96922  0.50667  1.0000
  C   C391      1.0  0.25266  0.97474  0.51443  1.0000
  C   C392      1.0  0.22845  0.95641  0.51810  1.0000
  H   H231      1.0  0.20435  0.91824  0.51705  1.0000
  O  Te63      1.0  0.28480  0.93889  0.49501  1.0000
  O  Te64      1.0  0.29574  0.98774  0.50309  1.0000
  H   H232      1.0  0.21386  0.96083  0.52412  1.0000
  Mg  Mg32      1.0  0.31475  0.97049  0.49255  1.0000
  C   C393      1.0  0.25939  0.70959  0.57825  1.0000
  C   C394      1.0  0.25576  0.72847  0.56350  1.0000
  C  Sn65      1.0  0.27783  0.75121  0.51048  1.0000
  C  Sn66      1.0  0.30400  0.75507  0.47154  1.0000
  C   C395      1.0  0.30743  0.73607  0.48655  1.0000
  C   C396      1.0  0.28520  0.71339  0.53978  1.0000
  H   H233      1.0  0.24220  0.69204  0.61932  1.0000
  O  Te65      1.0  0.27384  0.76987  0.49651  1.0000
  O  Te66      1.0  0.32642  0.77762  0.41819  1.0000
  H   H234      1.0  0.28802  0.69877  0.55105  1.0000
  Mg  Mg33      1.0  0.31070  0.79737  0.41880  1.0000
  C   C397      1.0  0.34961  0.83113  0.49524  1.0000
  C   C398      1.0  0.37391  0.84964  0.48872  1.0000
  C  Sn67      1.0  0.37718  0.87340  0.52210  1.0000
  C  Sn68      1.0  0.35567  0.87867  0.56280  1.0000
  C   C399      1.0  0.33142  0.86002  0.56914  1.0000
  C   C400      1.0  0.32837  0.83631  0.53545  1.0000
  H   H235      1.0  0.34724  0.81279  0.46929  1.0000
  O  Te67      1.0  0.40161  0.89168  0.51496  1.0000
  O  Te68      1.0  0.35838  0.90225  0.59680  1.0000
  H   H236      1.0  0.30954  0.82198  0.54064  1.0000
  Mg  Mg34      1.0  0.39556  0.92097  0.57123  1.0000
  C   C401      1.0  0.35404  0.75646  0.53448  1.0000
  C   C402      1.0  0.33411  0.73912  0.48439  1.0000
  C  Sn69      1.0  0.33238  0.71578  0.43135  1.0000
  C  Sn70      1.0  0.35098  0.70974  0.42860  1.0000
  C   C403      1.0  0.37083  0.72721  0.47910  1.0000
  C   C404      1.0  0.37238  0.75052  0.53189  1.0000
  H   H237      1.0  0.35523  0.77449  0.57544  1.0000
  O  Te69      1.0  0.31235  0.69868  0.38164  1.0000
  O  Te70      1.0  0.34970  0.68655  0.37622  1.0000
  H   H238      1.0  0.38780  0.76393  0.57079  1.0000
  Mg  Mg35      1.0  0.31882  0.66951  0.32035  1.0000
  C   C405      1.0  0.41525  0.82874  0.51646  1.0000
  C   C406      1.0  0.44262  0.84626  0.44757  1.0000
  C  Sn71      1.0  0.44995  0.86892  0.39985  1.0000
  C  Sn72      1.0  0.42946  0.87409  0.42171  1.0000
  C   C407      1.0  0.40214  0.85644  0.49087  1.0000
  C   C408      1.0  0.39502  0.83383  0.53813  1.0000
  H   H239      1.0  0.40974  0.81125  0.55314  1.0000
  O  Te71      1.0  0.47739  0.88621  0.33115  1.0000
  O  Te72      1.0  0.43622  0.89659  0.37516  1.0000
  H   H240      1.0  0.37383  0.82027  0.59159  1.0000
  Mg  Mg36      1.0  0.47642  0.91422  0.28702  1.0000
  C   C409      1.0  0.09266  0.60745  0.53475  1.0000
  C   C410      1.0  0.10231  0.63096  0.48949  1.0000
  C  Sn73      1.0  0.08741  0.63687  0.45069  1.0000
  C  Sn74      1.0  0.06238  0.61888  0.45749  1.0000
  C   C411      1.0  0.05289  0.59542  0.50305  1.0000
  C   C412      1.0  0.06797  0.58970  0.54157  1.0000
  H   H241      1.0  0.10431  0.60302  0.56466  1.0000
  O  Te73      1.0  0.09736  0.66044  0.40563  1.0000
  O  Te74      1.0  0.04708  0.62430  0.41940  1.0000
  H   H242      1.0  0.06048  0.57150  0.57673  1.0000
  Mg  Mg37      1.0  0.06915  0.65900  0.36479  1.0000
  C   C413      1.0  0.98907  0.56036  0.53901  1.0000
  C   C414      1.0  0.98661  0.53682  0.48405  1.0000
  C  Sn75      1.0  0.00781  0.53099  0.43462  1.0000
  C  Sn76      1.0  0.03190  0.54909  0.44052  1.0000
  C   C415      1.0  0.03416  0.57259  0.49583  1.0000
  C   C416      1.0  0.01283  0.57823  0.54494  1.0000
  H   H243      1.0  0.97256  0.56473  0.57712  1.0000
  O  Te75      1.0  0.00501  0.50738  0.37997  1.0000
  O  Te76      1.0  0.05340  0.54376  0.39191  1.0000
  H   H244      1.0  0.01474  0.59646  0.58761  1.0000
  Mg  Mg38      1.0  0.03993  0.50897  0.32669  1.0000
  C   C417      1.0  0.81899  0.31880  0.41200  1.0000
  C   C418      1.0  0.80025  0.32386  0.41210  1.0000
  C  Sn77      1.0  0.77480  0.30551  0.43686  1.0000
  C  Sn78      1.0  0.76805  0.28167  0.46202  1.0000
  C   C419      1.0  0.78693  0.27680  0.46185  1.0000
  C   C420      1.0  0.81234  0.29530  0.43689  1.0000
  H   H245      1.0  0.83864  0.33311  0.39280  1.0000
  O  Te77      1.0  0.75632  0.31088  0.43651  1.0000
  O  Te78      1.0  0.74276  0.26300  0.48714  1.0000
  H   H246      1.0  0.82684  0.29137  0.43695  1.0000
  Mg  Mg39      1.0  0.72444  0.27930  0.47598  1.0000
  C   C421      1.0  0.93801  0.36516  0.46826  1.0000
  C   C422      1.0  0.91837  0.37199  0.50150  1.0000
  C  Sn79      1.0  0.89137  0.35490  0.55009  1.0000
  C  Sn80      1.0  0.88394  0.33053  0.56563  1.0000
  C   C423      1.0  0.90373  0.32387  0.53224  1.0000
  C   C424      1.0  0.93070  0.34112  0.48364  1.0000
  H   H247      1.0  0.95887  0.37851  0.43077  1.0000
  O  Te79      1.0  0.87201  0.36203  0.58274  1.0000
  O  Te80      1.0  0.85710  0.31307  0.61406  1.0000
  H   H248      1.0  0.94589  0.33583  0.45805  1.0000
  Mg  Mg40      1.0  0.83806  0.33164  0.64484  1.0000
  C   C425      1.0  0.80930  0.23898  0.49988  1.0000
  C   C426      1.0  0.79129  0.21572  0.47946  1.0000
  C  Sn81      1.0  0.77172  0.21199  0.43455  1.0000
  C  Sn82      1.0  0.77021  0.23195  0.40965  1.0000
  C   C427      1.0  0.78833  0.25516  0.43024  1.0000
  C   C428      1.0  0.80782  0.25868  0.47526  1.0000
  H   H249      1.0  0.82439  0.24171  0.53460  1.0000
  O  Te81      1.0  0.75388  0.18862  0.41475  1.0000
  O  Te82      1.0  0.75085  0.22874  0.36465  1.0000
  H   H250      1.0  0.82177  0.27670  0.49093  1.0000
  Mg  Mg41      1.0  0.73103  0.19344  0.35259  1.0000
  C   C429      1.0  0.88098  0.27369  0.51517  1.0000
  C   C430      1.0  0.89766  0.29724  0.54349  1.0000
  C  Sn83      1.0  0.91819  0.30186  0.58148  1.0000
  C  Sn84      1.0  0.92205  0.28252  0.59116  1.0000
  C   C431      1.0  0.90527  0.25903  0.56247  1.0000
  C   C432      1.0  0.88478  0.25460  0.52461  1.0000
  H   H251      1.0  0.86513  0.27026  0.48577  1.0000
  O  Te83      1.0  0.93467  0.32549  0.60950  1.0000
  O  Te84      1.0  0.94243  0.28663  0.62883  1.0000
  H   H252      1.0  0.87188  0.23637  0.50256  1.0000
  Mg  Mg42      1.0  0.95968  0.32197  0.65688  1.0000
  C   C433      1.0  0.64736  0.96268  0.40252  1.0000
  C   C434      1.0  0.65055  0.98636  0.42934  1.0000
  C  Sn85      1.0  0.62862  0.99129  0.48113  1.0000
  C  Sn86      1.0  0.60303  0.97213  0.50650  1.0000
  C   C435      1.0  0.60003  0.94850  0.47947  1.0000
  C   C436      1.0  0.62212  0.94377  0.42759  1.0000
  H   H253      1.0  0.66445  0.95902  0.36248  1.0000
  O  Te85      1.0  0.13232  0.01506  0.50728  1.0000
  O  Te86      1.0  0.58076  0.97655  0.55832  1.0000
  H   H254      1.0  0.61964  0.92543  0.40696  1.0000
  Mg  Mg43      1.0  0.09589  0.01196  0.57746  1.0000
  C   C437      1.0  0.47047  0.57931  0.47169  1.0000
  C   C438      1.0  0.45068  0.58513  0.49502  1.0000
  C  Sn87      1.0  0.42428  0.56730  0.53546  1.0000
  C  Sn88      1.0  0.41763  0.54321  0.55284  1.0000
  C   C439      1.0  0.43756  0.53757  0.52938  1.0000
  C   C440      1.0  0.46392  0.55556  0.48888  1.0000
  H   H255      1.0  0.49086  0.59323  0.44046  1.0000
  O  Te87      1.0  0.40477  0.57342  0.55827  1.0000
  O  Te88      1.0  0.39140  0.52504  0.59326  1.0000
  H   H256      1.0  0.47923  0.55105  0.47095  1.0000
  Mg  Mg44      1.0  0.37185  0.54232  0.61197  1.0000
  C   C441      1.0  0.42851  0.62856  0.46553  1.0000
  C   C442      1.0  0.44635  0.65111  0.49854  1.0000
  C  Sn89      1.0  0.46596  0.65320  0.53596  1.0000
  C  Sn90      1.0  0.46771  0.63229  0.54025  1.0000
  C   C443      1.0  0.44978  0.60981  0.50689  1.0000
  C   C444      1.0  0.43023  0.60793  0.46965  1.0000
  H   H257      1.0  0.41339  0.62709  0.43660  1.0000
  O  Te89      1.0  0.48361  0.67587  0.56871  1.0000
  O  Te90      1.0  0.48712  0.63387  0.57722  1.0000
  H   H258      1.0  0.41643  0.59046  0.44397  1.0000
  Mg  Mg45      1.0  0.50662  0.66877  0.61300  1.0000
  C   C445      1.0  0.59530  0.37127  0.61024  1.0000
  C   C446      1.0  0.62341  0.38747  0.52669  1.0000
  C  Sn91      1.0  0.63223  0.40974  0.46291  1.0000
  C  Sn92      1.0  0.61249  0.41586  0.48339  1.0000
  C   C447      1.0  0.58442  0.39954  0.56730  1.0000
  C   C448      1.0  0.57582  0.37730  0.63058  1.0000
  H   H259      1.0  0.58865  0.35407  0.65931  1.0000
  O  Te91      1.0  0.66039  0.42570  0.37969  1.0000
  O  Te92      1.0  0.62074  0.43800  0.42095  1.0000
  H   H260      1.0  0.55405  0.36478  0.69538  1.0000
  Mg  Mg46      1.0  0.66144  0.45369  0.31675  1.0000
  C   C449      1.0  0.66857  0.36388  0.46025  1.0000
  C   C450      1.0  0.69373  0.38217  0.44138  1.0000
  C  Sn93      1.0  0.69849  0.40615  0.45610  1.0000
  C  Sn94      1.0  0.67764  0.41186  0.49040  1.0000
  C   C451      1.0  0.65253  0.39343  0.50920  1.0000
  C   C452      1.0  0.64799  0.36950  0.49416  1.0000
  H   H261      1.0  0.66505  0.34536  0.44872  1.0000
  O  Te93      1.0  0.72375  0.42421  0.43681  1.0000
  O  Te94      1.0  0.68184  0.43568  0.50581  1.0000
  H   H262      1.0  0.62850  0.35533  0.50891  1.0000
  Mg  Mg47      1.0  0.71969  0.45395  0.46904  1.0000
  C   C453      1.0  0.69762  0.01489  0.49396  1.0000
  C   C454      1.0  0.67574  0.01281  0.48336  1.0000
  C  Sn95      1.0  0.67563  0.03307  0.45524  1.0000
  C  Sn96      1.0  0.69786  0.05582  0.43741  1.0000
  C   C455      1.0  0.71966  0.05771  0.44807  1.0000
  C   C456      1.0  0.71957  0.03732  0.47631  1.0000
  H   H263      1.0  0.19740  0.99911  0.51570  1.0000
  O  Te95      1.0  0.65360  0.03068  0.44507  1.0000
  O  Te96      1.0  0.69827  0.07637  0.40915  1.0000
  H   H264      1.0  0.73652  0.03893  0.48438  1.0000
  Mg  Mg48      1.0  0.66353  0.06393  0.40512  1.0000
