data_image0
_chemical_formula_structural       H84C132N24H84C132N24SnCSn2CSnTe4Mg2SnCSn2CSnTe4Mg2SnCSn2CSnTe4Mg2SnCSn2CSnTe4Mg2SnCSn2CSnTe4Mg2SnCSn2CSnTe4Mg2SnCSn2CSnTe4Mg2SnCSn2CSnTe4Mg2SnCSn2CSnTe4Mg2SnCSn2CSnTe4Mg2SnCSn2CSnTe4Mg2SnCSn2CSnTe4Mg2SnCSn2CSnTe4Mg2SnCSn2CSnTe4Mg2SnCSn2CSnTe4Mg2SnCSn2CSnTe4Mg2SnCSn2CSnTe4Mg2SnCSn2CSnTe4Mg2SnCSn2CSnTe4Mg2SnCSn2CSnTe4Mg2SnCSn2CSnTe4Mg2SnCSn2CSnTe4Mg2SnCSn2CSnTe4Mg2SnCSn2CSnTe4Mg2SnCSn2CSnTe4Mg2SnCSn2CSnTe4Mg2SnCSn2CSnTe4Mg2SnCSn2CSnTe4Mg2SnCSn2CSnTe4Mg2SnCSn2CSnTe4Mg2SnCSn2CSnTe4Mg2SnCSn2CSnTe4Mg2SnCSn2CSnTe4Mg2SnCSn2CSnTe4Mg2SnCSn2CSnTe4Mg2SnCSn2CSnTe4Mg2SnCSn2CSnTe4Mg2SnCSn2CSnTe4Mg2SnCSn2CSnTe4Mg2SnCSn2CSnTe4Mg2SnCSn2CSnTe4Mg2SnCSn2CSnTe4Mg2SnCSn2CSnTe4Mg2SnCSn2CSnTe4Mg2SnCSn2CSnTe4Mg2SnCSn2CSnTe4Mg2SnCSn2CSnTe4Mg2SnCSn2CSnTe4Mg2
_chemical_formula_sum              "H168 C360 N48 Sn192 Te192 Mg96"
_cell_length_a       64.3588
_cell_length_b       64.4356
_cell_length_c       8.12711
_cell_angle_alpha    107.803
_cell_angle_beta     54.7522
_cell_angle_gamma    119.95

_symmetry_space_group_name_H-M    'P1'
_space_group_IT_number       1

loop_
  _space_group_symop_operation_xyz
  'x, y, z'

loop_
  _atom_site_type_symbol
  _atom_site_label
  _atom_site_symmetry_multiplicity
  _atom_site_fract_x
  _atom_site_fract_y
  _atom_site_fract_z
  _atom_site_occupancy
  H   H1        1.0  0.19247  0.23662  0.88675  1.0000
  H   H2        1.0  0.13966  0.16114  0.94343  1.0000
  H   H3        1.0  0.21535  0.18910  0.95530  1.0000
  H   H4        1.0  0.14998  0.22120  0.87991  1.0000
  H   H5        1.0  0.24457  0.22837  0.92325  1.0000
  H   H6        1.0  0.12601  0.13302  0.11602  1.0000
  H   H7        1.0  0.11629  0.09462  0.20866  1.0000
  H   H8        1.0  0.15423  0.08818  0.16257  1.0000
  H   H9        1.0  0.21334  0.15639  0.88412  1.0000
  H   H10       1.0  0.19270  0.08086  0.96488  1.0000
  H   H11       1.0  0.26953  0.11286  0.96290  1.0000
  H   H12       1.0  0.23314  0.15759  0.02665  1.0000
  H   H13       1.0  0.21266  0.05585  0.92278  1.0000
  H   H14       1.0  0.29549  0.15611  0.95008  1.0000
  H   H15       1.0  0.37587  0.42499  0.05100  1.0000
  H   H16       1.0  0.43893  0.42586  0.97684  1.0000
  H   H17       1.0  0.47887  0.50275  0.02867  1.0000
  H   H18       1.0  0.40033  0.46925  0.05310  1.0000
  H   H19       1.0  0.46174  0.52702  0.03653  1.0000
  H   H20       1.0  0.45872  0.42677  0.10794  1.0000
  H   H21       1.0  0.54606  0.45028  0.87353  1.0000
  H   H22       1.0  0.55567  0.48870  0.78306  1.0000
  H   H23       1.0  0.51755  0.49563  0.83791  1.0000
  H   H24       1.0  0.45711  0.39382  0.02940  1.0000
  H   H25       1.0  0.48095  0.34692  0.09512  1.0000
  H   H26       1.0  0.53175  0.42287  0.05810  1.0000
  H   H27       1.0  0.42974  0.35303  0.03878  1.0000
  H   H28       1.0  0.52398  0.36194  0.08339  1.0000
  H   H29       1.0  0.25916  0.91507  0.08146  1.0000
  H   H30       1.0  0.20061  0.86086  0.04114  1.0000
  H   H31       1.0  0.23092  0.81214  0.00791  1.0000
  H   H32       1.0  0.27423  0.88749  0.07288  1.0000
  H   H33       1.0  0.26828  0.82463  0.03933  1.0000
  H   H34       1.0  0.17121  0.83206  0.98558  1.0000
  H   H35       1.0  0.13115  0.79617  0.98382  1.0000
  H   H36       1.0  0.12433  0.75588  0.00625  1.0000
  H   H37       1.0  0.19879  0.78684  0.03348  1.0000
  H   H38       1.0  0.12071  0.72383  0.01859  1.0000
  H   H39       1.0  0.15234  0.68089  0.04544  1.0000
  H   H40       1.0  0.19620  0.75735  0.04461  1.0000
  H   H41       1.0  0.09803  0.68206  0.99562  1.0000
  H   H42       1.0  0.19588  0.69877  0.03026  1.0000
  H   H43       1.0  0.47068  0.88147  0.97208  1.0000
  H   H44       1.0  0.39852  0.75360  0.94822  1.0000
  H   H45       1.0  0.39195  0.69178  0.95480  1.0000
  H   H46       1.0  0.46599  0.72087  0.98541  1.0000
  H   H47       1.0  0.43701  0.76775  0.97067  1.0000
  H   H48       1.0  0.47093  0.82379  0.96110  1.0000
  H   H49       1.0  0.54708  0.85686  0.97708  1.0000
  H   H50       1.0  0.51530  0.90014  0.95650  1.0000
  H   H51       1.0  0.49469  0.74909  0.03186  1.0000
  H   H52       1.0  0.53368  0.78497  0.04694  1.0000
  H   H53       1.0  0.54041  0.82527  0.02426  1.0000
  H   H54       1.0  0.47007  0.79389  0.94487  1.0000
  H   H55       1.0  0.95968  0.48306  0.98794  1.0000
  H   H56       1.0  0.90445  0.48945  0.99111  1.0000
  H   H57       1.0  0.85503  0.41282  0.01400  1.0000
  H   H58       1.0  0.93202  0.44141  0.99865  1.0000
  H   H59       1.0  0.87165  0.49375  0.04663  1.0000
  H   H60       1.0  0.83503  0.49770  0.05445  1.0000
  H   H61       1.0  0.79728  0.46242  0.01814  1.0000
  H   H62       1.0  0.83385  0.41786  0.95299  1.0000
  H   H63       1.0  0.76648  0.43253  0.99921  1.0000
  H   H64       1.0  0.73281  0.35678  0.88809  1.0000
  H   H65       1.0  0.80728  0.39044  0.91743  1.0000
  H   H66       1.0  0.75586  0.33315  0.84415  1.0000
  H   H67       1.0  0.86857  0.38609  0.02698  1.0000
  H   H68       1.0  0.80080  0.19272  0.00750  1.0000
  H   H69       1.0  0.91945  0.24529  0.11970  1.0000
  H   H70       1.0  0.73914  0.13797  0.98905  1.0000
  H   H71       1.0  0.76452  0.08916  0.01451  1.0000
  H   H72       1.0  0.81420  0.16560  0.99876  1.0000
  H   H73       1.0  0.86594  0.18851  0.04236  1.0000
  H   H74       1.0  0.89605  0.14391  0.07577  1.0000
  H   H75       1.0  0.93749  0.22034  0.10729  1.0000
  H   H76       1.0  0.83355  0.15998  0.07392  1.0000
  H   H77       1.0  0.79973  0.08515  0.92735  1.0000
  H   H78       1.0  0.83719  0.08125  0.90889  1.0000
  H   H79       1.0  0.87351  0.11624  0.96334  1.0000
  H   H80       1.0  0.71308  0.09545  0.97099  1.0000
  H   H81       1.0  0.57233  0.89732  0.96504  1.0000
  H   H82       1.0  0.93638  0.16113  0.10239  1.0000
  H   H83       1.0  0.41018  0.66516  0.94034  1.0000
  H   H84       1.0  0.72414  0.41491  0.02117  1.0000
  C   C1        1.0  0.18799  0.21846  0.90343  1.0000
  C   C2        1.0  0.16397  0.19892  0.91264  1.0000
  C   C3        1.0  0.15868  0.17567  0.93571  1.0000
  C   C4        1.0  0.17692  0.17155  0.95007  1.0000
  C   C5        1.0  0.20115  0.19138  0.93707  1.0000
  C   C6        1.0  0.20676  0.21470  0.91606  1.0000
  C   C7        1.0  0.14384  0.20272  0.90642  1.0000
  C   C8        1.0  0.23127  0.23414  0.92092  1.0000
  C   C9        1.0  0.17052  0.14778  0.99461  1.0000
  C   C10       1.0  0.14308  0.12983  0.08410  1.0000
  C   C11       1.0  0.13762  0.10832  0.13835  1.0000
  C   C12       1.0  0.15903  0.10449  0.10974  1.0000
  C   C13       1.0  0.18663  0.12214  0.02113  1.0000
  C   C14       1.0  0.19184  0.14323  0.96095  1.0000
  C   C15       1.0  0.20975  0.11948  0.99762  1.0000
  C   C16       1.0  0.20959  0.09688  0.97516  1.0000
  C   C17       1.0  0.23077  0.09443  0.96520  1.0000
  C   C18       1.0  0.25323  0.11500  0.97066  1.0000
  C   C19       1.0  0.25402  0.13762  0.98939  1.0000
  C   C20       1.0  0.23218  0.13969  0.00522  1.0000
  C   C21       1.0  0.22875  0.07055  0.95385  1.0000
  C   C22       1.0  0.27720  0.15887  0.99749  1.0000
  C   C23       1.0  0.39424  0.42300  0.01222  1.0000
  C   C24       1.0  0.41706  0.44503  0.01893  1.0000
  C   C25       1.0  0.43952  0.44360  0.99854  1.0000
  C   C26       1.0  0.46196  0.46406  0.00278  1.0000
  C   C27       1.0  0.46183  0.48645  0.02325  1.0000
  C   C28       1.0  0.43992  0.48839  0.03967  1.0000
  C   C29       1.0  0.41715  0.46749  0.04080  1.0000
  C   C30       1.0  0.44248  0.51233  0.04467  1.0000
  C   C31       1.0  0.48522  0.46155  0.97796  1.0000
  C   C32       1.0  0.48008  0.44022  0.03400  1.0000
  C   C33       1.0  0.50143  0.43561  0.99859  1.0000
  C   C34       1.0  0.52887  0.45355  0.90853  1.0000
  C   C35       1.0  0.53427  0.47517  0.85645  1.0000
  C   C36       1.0  0.51276  0.47926  0.88965  1.0000
  C   C37       1.0  0.49503  0.41176  0.04223  1.0000
  C   C38       1.0  0.47120  0.39167  0.04985  1.0000
  C   C39       1.0  0.46600  0.36845  0.06961  1.0000
  C   C40       1.0  0.48482  0.36506  0.08406  1.0000
  C   C41       1.0  0.50827  0.38479  0.08103  1.0000
  C   C42       1.0  0.51314  0.40806  0.06160  1.0000
  C   C43       1.0  0.44221  0.34825  0.06008  1.0000
  C   C44       1.0  0.52850  0.38082  0.08382  1.0000
  C   C45       1.0  0.24164  0.90109  0.06254  1.0000
  C   C46       1.0  0.23754  0.87648  0.05690  1.0000
  C   C47       1.0  0.21514  0.85682  0.04072  1.0000
  C   C48       1.0  0.21198  0.83325  0.02374  1.0000
  C   C49       1.0  0.23208  0.82999  0.02367  1.0000
  C   C50       1.0  0.25423  0.84917  0.04254  1.0000
  C   C51       1.0  0.25691  0.87261  0.05943  1.0000
  C   C52       1.0  0.27390  0.84384  0.04103  1.0000
  C   C53       1.0  0.18819  0.81222  0.01213  1.0000
  C   C54       1.0  0.16866  0.81450  0.99779  1.0000
  C   C55       1.0  0.14598  0.79417  0.99643  1.0000
  C   C56       1.0  0.14219  0.77126  0.00864  1.0000
  C   C57       1.0  0.16143  0.76822  0.02092  1.0000
  C   C58       1.0  0.18405  0.78897  0.02186  1.0000
  C   C59       1.0  0.15851  0.74429  0.03380  1.0000
  C   C60       1.0  0.13631  0.72302  0.03007  1.0000
  C   C61       1.0  0.13397  0.70035  0.03525  1.0000
  C   C62       1.0  0.15412  0.69861  0.04524  1.0000
  C   C63       1.0  0.17631  0.71939  0.04970  1.0000
  C   C64       1.0  0.17821  0.74195  0.04475  1.0000
  C   C65       1.0  0.11124  0.67891  0.02142  1.0000
  C   C66       1.0  0.19821  0.71725  0.04537  1.0000
  C   C67       1.0  0.46900  0.86324  0.95697  1.0000
  C   C68       1.0  0.49110  0.86164  0.95412  1.0000
  C   C69       1.0  0.39301  0.73462  0.95507  1.0000
  C   C70       1.0  0.41280  0.73027  0.96055  1.0000
  C   C71       1.0  0.40962  0.70707  0.96124  1.0000
  C   C72       1.0  0.42884  0.70412  0.97276  1.0000
  C   C73       1.0  0.45155  0.72430  0.97951  1.0000
  C   C74       1.0  0.45531  0.74761  0.97805  1.0000
  C   C75       1.0  0.43541  0.75009  0.96938  1.0000
  C   C76       1.0  0.48907  0.83911  0.95979  1.0000
  C   C77       1.0  0.50872  0.83660  0.96913  1.0000
  C   C78       1.0  0.53119  0.85770  0.96950  1.0000
  C   C79       1.0  0.53347  0.88045  0.96706  1.0000
  C   C80       1.0  0.51324  0.88241  0.95951  1.0000
  C   C81       1.0  0.47902  0.76880  0.98845  1.0000
  C   C82       1.0  0.50539  0.81265  0.98379  1.0000
  C   C83       1.0  0.49752  0.76658  0.01571  1.0000
  C   C84       1.0  0.51959  0.78693  0.02521  1.0000
  C   C85       1.0  0.52349  0.80977  0.01093  1.0000
  C   C86       1.0  0.48362  0.79193  0.97180  1.0000
  C   C87       1.0  0.94495  0.48794  0.99629  1.0000
  C   C88       1.0  0.92051  0.46768  0.99527  1.0000
  C   C89       1.0  0.90047  0.47107  0.99553  1.0000
  C   C90       1.0  0.87678  0.45166  0.99853  1.0000
  C   C91       1.0  0.87355  0.42848  0.00400  1.0000
  C   C92       1.0  0.89327  0.42467  0.00252  1.0000
  C   C93       1.0  0.91700  0.44450  0.99678  1.0000
  C   C94       1.0  0.85534  0.45511  0.00163  1.0000
  C   C95       1.0  0.85550  0.47781  0.02759  1.0000
  C   C96       1.0  0.83458  0.48002  0.03389  1.0000
  C   C97       1.0  0.81312  0.45998  0.01393  1.0000
  C   C98       1.0  0.81254  0.43706  0.98400  1.0000
  C   C99       1.0  0.83384  0.43536  0.97857  1.0000
  C   C100      1.0  0.79070  0.41512  0.95699  1.0000
  C   C101      1.0  0.76828  0.41567  0.96893  1.0000
  C   C102      1.0  0.74758  0.39492  0.94383  1.0000
  C   C103      1.0  0.74907  0.37278  0.90585  1.0000
  C   C104      1.0  0.77071  0.37163  0.89923  1.0000
  C   C105      1.0  0.79127  0.39270  0.92291  1.0000
  C   C106      1.0  0.77091  0.34848  0.88145  1.0000
  C   C107      1.0  0.88830  0.40033  0.01507  1.0000
  C   C108      1.0  0.78263  0.17912  0.99434  1.0000
  C   C109      1.0  0.77687  0.15429  0.00004  1.0000
  C   C110      1.0  0.90316  0.23066  0.09049  1.0000
  C   C111      1.0  0.90079  0.20669  0.08437  1.0000
  C   C112      1.0  0.75354  0.13467  0.99724  1.0000
  C   C113      1.0  0.74960  0.11134  0.00086  1.0000
  C   C114      1.0  0.76882  0.10761  0.00871  1.0000
  C   C115      1.0  0.79249  0.12681  0.00701  1.0000
  C   C116      1.0  0.79593  0.15007  0.00359  1.0000
  C   C117      1.0  0.87992  0.18588  0.06045  1.0000
  C   C118      1.0  0.87791  0.16295  0.05339  1.0000
  C   C119      1.0  0.89741  0.16135  0.07334  1.0000
  C   C120      1.0  0.91908  0.18190  0.08875  1.0000
  C   C121      1.0  0.92057  0.20460  0.09524  1.0000
  C   C122      1.0  0.81411  0.12326  0.99948  1.0000
  C   C123      1.0  0.85650  0.14119  0.02054  1.0000
  C   C124      1.0  0.83475  0.14282  0.03272  1.0000
  C   C125      1.0  0.81517  0.10082  0.95571  1.0000
  C   C126      1.0  0.83647  0.09867  0.94444  1.0000
  C   C127      1.0  0.85708  0.11853  0.97491  1.0000
  C   C128      1.0  0.72598  0.09092  0.98950  1.0000
  C   C129      1.0  0.55700  0.90138  0.97388  1.0000
  C   C130      1.0  0.94036  0.17946  0.09015  1.0000
  C   C131      1.0  0.42549  0.68014  0.97761  1.0000
  C   C132      1.0  0.72444  0.39713  0.96785  1.0000
  N   N1        1.0  0.23621  0.25637  0.92873  1.0000
  N   N2        1.0  0.12042  0.18522  0.93269  1.0000
  N   N3        1.0  0.27623  0.17959  0.05510  1.0000
  N   N4        1.0  0.24453  0.06716  0.98361  1.0000
  N   N5        1.0  0.39575  0.40250  0.96447  1.0000
  N   N6        1.0  0.43685  0.32643  0.07335  1.0000
  N   N7        1.0  0.22597  0.90562  0.03991  1.0000
  N   N8        1.0  0.29597  0.86050  0.04279  1.0000
  N   N9        1.0  0.21906  0.73563  0.05235  1.0000
  N   N10       1.0  0.37071  0.71746  0.95935  1.0000
  N   N11       1.0  0.44851  0.84434  0.94926  1.0000
  N   N12       1.0  0.10744  0.65768  0.03473  1.0000
  N   N13       1.0  0.94875  0.50986  0.00573  1.0000
  N   N14       1.0  0.78697  0.34625  0.91644  1.0000
  N   N15       1.0  0.90586  0.39619  0.01720  1.0000
  N   N16       1.0  0.76707  0.18444  0.97744  1.0000
  N   N17       1.0  0.88731  0.23428  0.06302  1.0000
  N   N18       1.0  0.72130  0.06915  0.99699  1.0000
  N   N19       1.0  0.55970  0.92302  0.98767  1.0000
  N   N20       1.0  0.96263  0.19783  0.07530  1.0000
  N   N21       1.0  0.42414  0.51592  0.04862  1.0000
  N   N22       1.0  0.44014  0.67705  0.02133  1.0000
  N   N23       1.0  0.55066  0.39843  0.07848  1.0000
  N   N24       1.0  0.70530  0.37957  0.93533  1.0000
  H   H85       1.0  0.20576  0.23353  0.38170  1.0000
  H   H86       1.0  0.15513  0.15756  0.42858  1.0000
  H   H87       1.0  0.22937  0.18785  0.46530  1.0000
  H   H88       1.0  0.16448  0.21814  0.37445  1.0000
  H   H89       1.0  0.25718  0.22888  0.44469  1.0000
  H   H90       1.0  0.14152  0.12967  0.59713  1.0000
  H   H91       1.0  0.13258  0.09086  0.67536  1.0000
  H   H92       1.0  0.17063  0.08451  0.62761  1.0000
  H   H93       1.0  0.22828  0.15520  0.39208  1.0000
  H   H94       1.0  0.20925  0.07847  0.44944  1.0000
  H   H95       1.0  0.28530  0.11171  0.46013  1.0000
  H   H96       1.0  0.24762  0.15521  0.52337  1.0000
  H   H97       1.0  0.22601  0.05394  0.44609  1.0000
  H   H98       1.0  0.30938  0.15570  0.46969  1.0000
  H   H99       1.0  0.39200  0.42921  0.48333  1.0000
  H   H100      1.0  0.45034  0.42676  0.46857  1.0000
  H   H101      1.0  0.48960  0.50349  0.53895  1.0000
  H   H102      1.0  0.41502  0.47115  0.50988  1.0000
  H   H103      1.0  0.46802  0.52836  0.58722  1.0000
  H   H104      1.0  0.47046  0.42820  0.61265  1.0000
  H   H105      1.0  0.55860  0.45084  0.34651  1.0000
  H   H106      1.0  0.56760  0.48895  0.25415  1.0000
  H   H107      1.0  0.52874  0.49563  0.31934  1.0000
  H   H108      1.0  0.46886  0.39500  0.53473  1.0000
  H   H109      1.0  0.49401  0.34837  0.58945  1.0000
  H   H110      1.0  0.54522  0.42423  0.53960  1.0000
  H   H111      1.0  0.43942  0.35534  0.57614  1.0000
  H   H112      1.0  0.53839  0.36384  0.56494  1.0000
  H   H113      1.0  0.27249  0.91372  0.60114  1.0000
  H   H114      1.0  0.21606  0.85841  0.55076  1.0000
  H   H115      1.0  0.25124  0.81172  0.47757  1.0000
  H   H116      1.0  0.29099  0.88716  0.56923  1.0000
  H   H117      1.0  0.29389  0.82701  0.45762  1.0000
  H   H118      1.0  0.19169  0.83065  0.45422  1.0000
  H   H119      1.0  0.15230  0.79489  0.44092  1.0000
  H   H120      1.0  0.14468  0.75454  0.47104  1.0000
  H   H121      1.0  0.21423  0.78565  0.56034  1.0000
  H   H122      1.0  0.13708  0.72281  0.52735  1.0000
  H   H123      1.0  0.16902  0.67910  0.54060  1.0000
  H   H124      1.0  0.21348  0.75543  0.53915  1.0000
  H   H125      1.0  0.11140  0.68217  0.54204  1.0000
  H   H126      1.0  0.21426  0.69799  0.52295  1.0000
  H   H127      1.0  0.49201  0.88706  0.46228  1.0000
  H   H128      1.0  0.41974  0.76150  0.44681  1.0000
  H   H129      1.0  0.41159  0.69919  0.45103  1.0000
  H   H130      1.0  0.48561  0.72534  0.47629  1.0000
  H   H131      1.0  0.45811  0.77464  0.47853  1.0000
  H   H132      1.0  0.49193  0.82895  0.45249  1.0000
  H   H133      1.0  0.56711  0.86259  0.48309  1.0000
  H   H134      1.0  0.53553  0.90538  0.45328  1.0000
  H   H135      1.0  0.51640  0.75408  0.51408  1.0000
  H   H136      1.0  0.55646  0.78980  0.51675  1.0000
  H   H137      1.0  0.56350  0.83021  0.49498  1.0000
  H   H138      1.0  0.48956  0.79960  0.46168  1.0000
  H   H139      1.0  0.97016  0.48560  0.53267  1.0000
  H   H140      1.0  0.91782  0.49100  0.49741  1.0000
  H   H141      1.0  0.87077  0.41434  0.48407  1.0000
  H   H142      1.0  0.94487  0.44272  0.50826  1.0000
  H   H143      1.0  0.88931  0.49565  0.50134  1.0000
  H   H144      1.0  0.85389  0.50018  0.49727  1.0000
  H   H145      1.0  0.81503  0.46504  0.47430  1.0000
  H   H146      1.0  0.84438  0.41916  0.48910  1.0000
  H   H147      1.0  0.78153  0.43593  0.49584  1.0000
  H   H148      1.0  0.74587  0.36041  0.38411  1.0000
  H   H149      1.0  0.82023  0.39186  0.41395  1.0000
  H   H150      1.0  0.76681  0.33539  0.34191  1.0000
  H   H151      1.0  0.88506  0.38769  0.47067  1.0000
  H   H152      1.0  0.81986  0.19852  0.47241  1.0000
  H   H153      1.0  0.94001  0.25056  0.54079  1.0000
  H   H154      1.0  0.75747  0.14314  0.49060  1.0000
  H   H155      1.0  0.78365  0.09492  0.51394  1.0000
  H   H156      1.0  0.83369  0.17140  0.48677  1.0000
  H   H157      1.0  0.88325  0.19280  0.54399  1.0000
  H   H158      1.0  0.91465  0.15012  0.58545  1.0000
  H   H159      1.0  0.95730  0.22681  0.57879  1.0000
  H   H160      1.0  0.84927  0.16451  0.60831  1.0000
  H   H161      1.0  0.82138  0.09214  0.39060  1.0000
  H   H162      1.0  0.85869  0.08785  0.37257  1.0000
  H   H163      1.0  0.89367  0.12243  0.44512  1.0000
  H   H164      1.0  0.72968  0.10158  0.50113  1.0000
  H   H165      1.0  0.58955  0.90431  0.50672  1.0000
  H   H166      1.0  0.95442  0.16727  0.60200  1.0000
  H   H167      1.0  0.42469  0.67152  0.45751  1.0000
  H   H168      1.0  0.74027  0.41968  0.50160  1.0000
  C   C133      1.0  0.20180  0.21555  0.39800  1.0000
  C   C134      1.0  0.17821  0.19565  0.40440  1.0000
  C   C135      1.0  0.17350  0.17258  0.42706  1.0000
  C   C136      1.0  0.19166  0.16930  0.44916  1.0000
  C   C137      1.0  0.21527  0.18964  0.44258  1.0000
  C   C138      1.0  0.22051  0.21264  0.41720  1.0000
  C   C139      1.0  0.15816  0.19952  0.39845  1.0000
  C   C140      1.0  0.24431  0.23319  0.42417  1.0000
  C   C141      1.0  0.18574  0.14549  0.48985  1.0000
  C   C142      1.0  0.15872  0.12685  0.56731  1.0000
  C   C143      1.0  0.15368  0.10496  0.61198  1.0000
  C   C144      1.0  0.17516  0.10126  0.58330  1.0000
  C   C145      1.0  0.20234  0.11961  0.50687  1.0000
  C   C146      1.0  0.20713  0.14127  0.45849  1.0000
  C   C147      1.0  0.22539  0.11712  0.48611  1.0000
  C   C148      1.0  0.22571  0.09471  0.46299  1.0000
  C   C149      1.0  0.24690  0.09264  0.45650  1.0000
  C   C150      1.0  0.26897  0.11353  0.46556  1.0000
  C   C151      1.0  0.26915  0.13603  0.48682  1.0000
  C   C152      1.0  0.24719  0.13750  0.49959  1.0000
  C   C153      1.0  0.24436  0.06864  0.45116  1.0000
  C   C154      1.0  0.29165  0.15798  0.49922  1.0000
  C   C155      1.0  0.40747  0.42546  0.47535  1.0000
  C   C156      1.0  0.42986  0.44651  0.49491  1.0000
  C   C157      1.0  0.45112  0.44457  0.48901  1.0000
  C   C158      1.0  0.47321  0.46487  0.49996  1.0000
  C   C159      1.0  0.47309  0.48744  0.52443  1.0000
  C   C160      1.0  0.45219  0.48974  0.52865  1.0000
  C   C161      1.0  0.43070  0.46911  0.51164  1.0000
  C   C162      1.0  0.45337  0.51343  0.54378  1.0000
  C   C163      1.0  0.49667  0.46219  0.47130  1.0000
  C   C164      1.0  0.49193  0.44120  0.52999  1.0000
  C   C165      1.0  0.51369  0.43659  0.48780  1.0000
  C   C166      1.0  0.54119  0.45421  0.38760  1.0000
  C   C167      1.0  0.54623  0.47556  0.33367  1.0000
  C   C168      1.0  0.52432  0.47957  0.37321  1.0000
  C   C169      1.0  0.50770  0.41304  0.53424  1.0000
  C   C170      1.0  0.48350  0.39298  0.54971  1.0000
  C   C171      1.0  0.47852  0.36977  0.56800  1.0000
  C   C172      1.0  0.49792  0.36646  0.57610  1.0000
  C   C173      1.0  0.52161  0.38629  0.56988  1.0000
  C   C174      1.0  0.52633  0.40938  0.54796  1.0000
  C   C175      1.0  0.45387  0.34997  0.56663  1.0000
  C   C176      1.0  0.54226  0.38266  0.57137  1.0000
  C   C177      1.0  0.25683  0.89937  0.56431  1.0000
  C   C178      1.0  0.25383  0.87514  0.55626  1.0000
  C   C179      1.0  0.23157  0.85507  0.54287  1.0000
  C   C180      1.0  0.22966  0.83184  0.51946  1.0000
  C   C181      1.0  0.25108  0.82929  0.50627  1.0000
  C   C182      1.0  0.27273  0.84893  0.52809  1.0000
  C   C183      1.0  0.27385  0.87198  0.55546  1.0000
  C   C184      1.0  0.29427  0.84499  0.51257  1.0000
  C   C185      1.0  0.20620  0.81067  0.50635  1.0000
  C   C186      1.0  0.18822  0.81307  0.47453  1.0000
  C   C187      1.0  0.16606  0.79283  0.46543  1.0000
  C   C188      1.0  0.16168  0.76993  0.48412  1.0000
  C   C189      1.0  0.17933  0.76688  0.51525  1.0000
  C   C190      1.0  0.20115  0.78756  0.52780  1.0000
  C   C191      1.0  0.17561  0.74286  0.53266  1.0000
  C   C192      1.0  0.15301  0.72180  0.53323  1.0000
  C   C193      1.0  0.15066  0.69894  0.53446  1.0000
  C   C194      1.0  0.17104  0.69689  0.53945  1.0000
  C   C195      1.0  0.19318  0.71761  0.54566  1.0000
  C   C196      1.0  0.19523  0.74020  0.54138  1.0000
  C   C197      1.0  0.12699  0.67805  0.52853  1.0000
  C   C198      1.0  0.21543  0.71612  0.54192  1.0000
  C   C199      1.0  0.48974  0.86868  0.45142  1.0000
  C   C200      1.0  0.51165  0.86684  0.44908  1.0000
  C   C201      1.0  0.41356  0.74251  0.46022  1.0000
  C   C202      1.0  0.43314  0.73750  0.46316  1.0000
  C   C203      1.0  0.42948  0.71399  0.45794  1.0000
  C   C204      1.0  0.44846  0.70988  0.46336  1.0000
  C   C205      1.0  0.47146  0.72947  0.47233  1.0000
  C   C206      1.0  0.47559  0.75315  0.47798  1.0000
  C   C207      1.0  0.45601  0.75666  0.47311  1.0000
  C   C208      1.0  0.50990  0.84431  0.45311  1.0000
  C   C209      1.0  0.52956  0.84198  0.46451  1.0000
  C   C210      1.0  0.55152  0.86330  0.47070  1.0000
  C   C211      1.0  0.55374  0.88594  0.46585  1.0000
  C   C212      1.0  0.53372  0.88769  0.45438  1.0000
  C   C213      1.0  0.49973  0.77407  0.48577  1.0000
  C   C214      1.0  0.52673  0.81803  0.47627  1.0000
  C   C215      1.0  0.51912  0.77167  0.50103  1.0000
  C   C216      1.0  0.54181  0.79192  0.50284  1.0000
  C   C217      1.0  0.54575  0.81489  0.49049  1.0000
  C   C218      1.0  0.50416  0.79735  0.47422  1.0000
  C   C219      1.0  0.95741  0.48975  0.50951  1.0000
  C   C220      1.0  0.93374  0.46910  0.50078  1.0000
  C   C221      1.0  0.91411  0.47256  0.49634  1.0000
  C   C222      1.0  0.89087  0.45325  0.49273  1.0000
  C   C223      1.0  0.88818  0.43008  0.48948  1.0000
  C   C224      1.0  0.90726  0.42618  0.49523  1.0000
  C   C225      1.0  0.93027  0.44589  0.50160  1.0000
  C   C226      1.0  0.86962  0.45677  0.49479  1.0000
  C   C227      1.0  0.87184  0.47975  0.49845  1.0000
  C   C228      1.0  0.85176  0.48230  0.49620  1.0000
  C   C229      1.0  0.82952  0.46233  0.48562  1.0000
  C   C230      1.0  0.82675  0.43909  0.48014  1.0000
  C   C231      1.0  0.84676  0.43701  0.48878  1.0000
  C   C232      1.0  0.80449  0.41735  0.45635  1.0000
  C   C233      1.0  0.78263  0.41876  0.46646  1.0000
  C   C234      1.0  0.76174  0.39853  0.43990  1.0000
  C   C235      1.0  0.76231  0.37600  0.40307  1.0000
  C   C236      1.0  0.78332  0.37395  0.39761  1.0000
  C   C237      1.0  0.80436  0.39460  0.42150  1.0000
  C   C238      1.0  0.78208  0.35016  0.38027  1.0000
  C   C239      1.0  0.90210  0.40144  0.49611  1.0000
  C   C240      1.0  0.80053  0.18400  0.47991  1.0000
  C   C241      1.0  0.79565  0.15977  0.49418  1.0000
  C   C242      1.0  0.92068  0.23484  0.56097  1.0000
  C   C243      1.0  0.91926  0.21190  0.57007  1.0000
  C   C244      1.0  0.77212  0.13998  0.49670  1.0000
  C   C245      1.0  0.76831  0.11678  0.50057  1.0000
  C   C246      1.0  0.78782  0.11326  0.50600  1.0000
  C   C247      1.0  0.81140  0.13264  0.50415  1.0000
  C   C248      1.0  0.81500  0.15593  0.49732  1.0000
  C   C249      1.0  0.89761  0.19070  0.56111  1.0000
  C   C250      1.0  0.89571  0.16812  0.56128  1.0000
  C   C251      1.0  0.91588  0.16731  0.57795  1.0000
  C   C252      1.0  0.93796  0.18825  0.58433  1.0000
  C   C253      1.0  0.93979  0.21070  0.57773  1.0000
  C   C254      1.0  0.83283  0.12903  0.49834  1.0000
  C   C255      1.0  0.87433  0.14640  0.52941  1.0000
  C   C256      1.0  0.85198  0.14795  0.54953  1.0000
  C   C257      1.0  0.83553  0.10716  0.43485  1.0000
  C   C258      1.0  0.85691  0.10489  0.42145  1.0000
  C   C259      1.0  0.87651  0.12433  0.46465  1.0000
  C   C260      1.0  0.74418  0.09665  0.49540  1.0000
  C   C261      1.0  0.57646  0.90738  0.47922  1.0000
  C   C262      1.0  0.95897  0.18575  0.58860  1.0000
  C   C263      1.0  0.44321  0.68510  0.46597  1.0000
  C   C264      1.0  0.73942  0.40146  0.45841  1.0000
  N   N25       1.0  0.24927  0.25482  0.40926  1.0000
  N   N26       1.0  0.13468  0.18228  0.42323  1.0000
  N   N27       1.0  0.29073  0.17867  0.53897  1.0000
  N   N28       1.0  0.26168  0.06505  0.46149  1.0000
  N   N29       1.0  0.40626  0.40414  0.44978  1.0000
  N   N30       1.0  0.44995  0.32792  0.55175  1.0000
  N   N31       1.0  0.24239  0.90334  0.52434  1.0000
  N   N32       1.0  0.31257  0.86175  0.55690  1.0000
  N   N33       1.0  0.23552  0.73519  0.55324  1.0000
  N   N34       1.0  0.39084  0.72545  0.47042  1.0000
  N   N35       1.0  0.46890  0.84994  0.44720  1.0000
  N   N36       1.0  0.12450  0.65637  0.50911  1.0000
  N   N37       1.0  0.96252  0.51138  0.49365  1.0000
  N   N38       1.0  0.79753  0.34696  0.41525  1.0000
  N   N39       1.0  0.91706  0.39630  0.52137  1.0000
  N   N40       1.0  0.78296  0.18756  0.47308  1.0000
  N   N41       1.0  0.90055  0.23627  0.57169  1.0000
  N   N42       1.0  0.74049  0.07474  0.48399  1.0000
  N   N43       1.0  0.58052  0.92855  0.46181  1.0000
  N   N44       1.0  0.98160  0.20362  0.57323  1.0000
  N   N45       1.0  0.43807  0.51653  0.50678  1.0000
  N   N46       1.0  0.45885  0.67989  0.48309  1.0000
  N   N47       1.0  0.56404  0.40040  0.57117  1.0000
  N   N48       1.0  0.71985  0.38390  0.43049  1.0000
  C  Sn1       1.0  0.12711  0.16362  0.00237  1.0000
  C   C265      1.0  0.12292  0.18390  0.02667  1.0000
  C  Sn2       1.0  0.07356  0.20961  0.98894  1.0000
  C  Sn3       1.0  0.10036  0.21214  0.92548  1.0000
  C   C266      1.0  0.10455  0.19187  0.90117  1.0000
  C  Sn4       1.0  0.08252  0.16911  0.93890  1.0000
  O  Te1       1.0  0.10478  0.14106  0.04092  1.0000
  O  Te2       1.0  0.14025  0.22666  0.01435  1.0000
  O  Te3       1.0  0.12270  0.23473  0.88692  1.0000
  O  Te4       1.0  0.08722  0.14911  0.91349  1.0000
  Mg  Mg1       1.0  0.10588  0.25657  0.94300  1.0000
  Mg  Mg2       1.0  0.05020  0.12216  0.98469  1.0000
  C  Sn5       1.0  0.34520  0.31149  0.02468  1.0000
  C   C267      1.0  0.29793  0.31591  0.99879  1.0000
  C  Sn6       1.0  0.30508  0.29638  0.91906  1.0000
  C  Sn7       1.0  0.28777  0.27494  0.86394  1.0000
  C   C268      1.0  0.26366  0.27348  0.88981  1.0000
  C  Sn8       1.0  0.25649  0.29301  0.96956  1.0000
  O  Te5       1.0  0.33846  0.33124  0.10465  1.0000
  O  Te6       1.0  0.32930  0.29826  0.89465  1.0000
  O  Te7       1.0  0.29453  0.25518  0.78393  1.0000
  O  Te8       1.0  0.23229  0.29113  0.99395  1.0000
  Mg  Mg3       1.0  0.32965  0.26648  0.77939  1.0000
  Mg  Mg4       1.0  0.30333  0.31994  0.10909  1.0000
  C  Sn9       1.0  0.01182  0.21825  0.07189  1.0000
  C   C269      1.0  0.99299  0.20144  0.01012  1.0000
  C  Sn10      1.0  0.91942  0.18093  0.95888  1.0000
  C  Sn11      1.0  0.93642  0.17411  0.96970  1.0000
  C   C270      1.0  0.02663  0.18795  0.03146  1.0000
  C  Sn12      1.0  0.02882  0.21143  0.08271  1.0000
  O  Te9       1.0  0.01364  0.24161  0.12242  1.0000
  O  Te10      1.0  0.90045  0.16444  0.89749  1.0000
  O  Te11      1.0  0.93458  0.15072  0.91909  1.0000
  O  Te12      1.0  0.04777  0.22790  0.14409  1.0000
  Mg  Mg5       1.0  0.90560  0.13475  0.84427  1.0000
  Mg  Mg6       1.0  0.04263  0.25760  0.19745  1.0000
  C  Sn13      1.0  0.42156  0.33942  0.02305  1.0000
  C   C271      1.0  0.32977  0.33934  0.98979  1.0000
  C  Sn14      1.0  0.33282  0.35793  0.91260  1.0000
  C  Sn15      1.0  0.35674  0.38003  0.86757  1.0000
  C   C272      1.0  0.37712  0.38307  0.90078  1.0000
  C  Sn16      1.0  0.37409  0.36448  0.97802  1.0000
  O  Te13      1.0  0.41809  0.32059  0.10032  1.0000
  O  Te14      1.0  0.31215  0.35447  0.88069  1.0000
  O  Te15      1.0  0.36020  0.39887  0.79024  1.0000
  O  Te16      1.0  0.46614  0.36498  0.00988  1.0000
  Mg  Mg7       1.0  0.32634  0.38547  0.77283  1.0000
  Mg  Mg8       1.0  0.45198  0.33398  0.11764  1.0000
  C  Sn17      1.0  0.32057  0.20271  0.13226  1.0000
  C   C273      1.0  0.29866  0.20024  0.11988  1.0000
  C  Sn18      1.0  0.30059  0.21917  0.05484  1.0000
  C  Sn19      1.0  0.32493  0.24103  0.00091  1.0000
  C   C274      1.0  0.34682  0.24349  0.01326  1.0000
  C  Sn20      1.0  0.34491  0.22456  0.07833  1.0000
  O  Te17      1.0  0.31819  0.18354  0.19767  1.0000
  O  Te18      1.0  0.27841  0.21628  0.04377  1.0000
  O  Te19      1.0  0.25589  0.26316  0.93546  1.0000
  O  Te20      1.0  0.36707  0.22745  0.08938  1.0000
  Mg  Mg9       1.0  0.22013  0.25053  0.94570  1.0000
  Mg  Mg10      1.0  0.35399  0.19617  0.18732  1.0000
  C  Sn21      1.0  0.31023  0.29471  0.97304  1.0000
  C   C275      1.0  0.37430  0.26819  0.00128  1.0000
  C  Sn22      1.0  0.38579  0.26355  0.08116  1.0000
  C  Sn23      1.0  0.40500  0.28286  0.13404  1.0000
  C   C276      1.0  0.41231  0.30641  0.10584  1.0000
  C  Sn24      1.0  0.40084  0.31106  0.02593  1.0000
  O  Te21      1.0  0.29849  0.29893  0.89297  1.0000
  O  Te22      1.0  0.37815  0.23984  0.10793  1.0000
  O  Te23      1.0  0.41674  0.27862  0.21417  1.0000
  O  Te24      1.0  0.33707  0.33771  0.99918  1.0000
  Mg  Mg11      1.0  0.39979  0.24324  0.22236  1.0000
  Mg  Mg12      1.0  0.31542  0.33433  0.88487  1.0000
  C  Sn25      1.0  0.26769  0.03815  0.93066  1.0000
  C   C277      1.0  0.24897  0.04295  0.92814  1.0000
  C  Sn26      1.0  0.22231  0.02513  0.97560  1.0000
  C  Sn27      1.0  0.78542  0.99908  0.02678  1.0000
  C   C278      1.0  0.80413  0.99428  0.02932  1.0000
  C  Sn28      1.0  0.25957  0.01505  0.98184  1.0000
  O  Te25      1.0  0.29424  0.05623  0.88271  1.0000
  O  Te26      1.0  0.20396  0.03036  0.97199  1.0000
  O  Te27      1.0  0.75884  0.98099  0.07475  1.0000
  O  Te28      1.0  0.27791  0.00984  0.98547  1.0000
  Mg  Mg13      1.0  0.74129  0.99682  0.04887  1.0000
  Mg  Mg14      1.0  0.31181  0.04040  0.90872  1.0000
  C  Sn29      1.0  0.14310  0.93774  0.95308  1.0000
  C   C279      1.0  0.16035  0.93267  0.97196  1.0000
  C  Sn30      1.0  0.25071  0.94780  0.02793  1.0000
  C  Sn31      1.0  0.25246  0.97145  0.06595  1.0000
  C   C280      1.0  0.23521  0.97651  0.04711  1.0000
  C  Sn32      1.0  0.14485  0.96140  0.99111  1.0000
  O  Te29      1.0  0.12429  0.91938  0.89696  1.0000
  O  Te30      1.0  0.26775  0.94229  0.04575  1.0000
  O  Te31      1.0  0.27129  0.98981  0.12211  1.0000
  O  Te32      1.0  0.12781  0.96689  0.97331  1.0000
  Mg  Mg15      1.0  0.29005  0.97342  0.12639  1.0000
  Mg  Mg16      1.0  0.10550  0.93577  0.89279  1.0000
  C  Sn33      1.0  0.25584  0.70634  0.01331  1.0000
  C   C281      1.0  0.21073  0.72760  0.97058  1.0000
  C  Sn34      1.0  0.21563  0.75154  0.98126  1.0000
  C  Sn35      1.0  0.26519  0.75436  0.03592  1.0000
  C   C282      1.0  0.23892  0.73608  0.07865  1.0000
  C  Sn36      1.0  0.23401  0.71213  0.06797  1.0000
  O  Te33      1.0  0.25141  0.68253  0.00170  1.0000
  O  Te34      1.0  0.24208  0.76952  0.93780  1.0000
  O  Te35      1.0  0.26964  0.77820  0.04751  1.0000
  O  Te36      1.0  0.20757  0.69415  0.11143  1.0000
  Mg  Mg17      1.0  0.23784  0.79928  0.97451  1.0000
  Mg  Mg18      1.0  0.21178  0.66439  0.07487  1.0000
  C  Sn37      1.0  0.34545  0.87733  0.02136  1.0000
  C   C283      1.0  0.25278  0.86291  0.98470  1.0000
  C  Sn38      1.0  0.24586  0.83860  0.98313  1.0000
  C  Sn39      1.0  0.33189  0.82854  0.01907  1.0000
  C   C284      1.0  0.35315  0.84591  0.05574  1.0000
  C  Sn40      1.0  0.36008  0.87023  0.05730  1.0000
  O  Te37      1.0  0.35201  0.90154  0.02223  1.0000
  O  Te38      1.0  0.22452  0.82155  0.94606  1.0000
  O  Te39      1.0  0.32531  0.80431  0.01817  1.0000
  O  Te40      1.0  0.38141  0.88727  0.09438  1.0000
  Mg  Mg19      1.0  0.22323  0.79078  0.96048  1.0000
  Mg  Mg20      1.0  0.38270  0.91805  0.08010  1.0000
  C  Sn41      1.0  0.37949  0.69858  0.00162  1.0000
  C   C285      1.0  0.37577  0.71944  0.03686  1.0000
  C  Sn42      1.0  0.39741  0.74193  0.02190  1.0000
  C  Sn43      1.0  0.35193  0.74657  0.97051  1.0000
  C   C286      1.0  0.35565  0.72572  0.93527  1.0000
  C  Sn44      1.0  0.33401  0.70322  0.95024  1.0000
  O  Te41      1.0  0.35757  0.67629  0.01742  1.0000
  O  Te42      1.0  0.39318  0.76253  0.05788  1.0000
  O  Te43      1.0  0.37386  0.76888  0.95474  1.0000
  O  Te44      1.0  0.33823  0.68263  0.91425  1.0000
  Mg  Mg21      1.0  0.42937  0.78879  0.01777  1.0000
  Mg  Mg22      1.0  0.30206  0.65636  0.95421  1.0000
  C  Sn45      1.0  0.32749  0.82521  0.95396  1.0000
  C   C287      1.0  0.35377  0.84392  0.90514  1.0000
  C  Sn46      1.0  0.35800  0.86763  0.91472  1.0000
  C  Sn47      1.0  0.33548  0.87275  0.97445  1.0000
  C   C288      1.0  0.38062  0.85109  0.02327  1.0000
  C  Sn48      1.0  0.37638  0.82737  0.01370  1.0000
  O  Te45      1.0  0.32374  0.80164  0.94335  1.0000
  O  Te46      1.0  0.38446  0.88603  0.86513  1.0000
  O  Te47      1.0  0.33925  0.89635  0.98504  1.0000
  O  Te48      1.0  0.34993  0.80898  0.06328  1.0000
  Mg  Mg23      1.0  0.37915  0.91523  0.90286  1.0000
  Mg  Mg24      1.0  0.35521  0.77977  0.02570  1.0000
  C  Sn49      1.0  0.04512  0.62221  0.02323  1.0000
  C   C289      1.0  0.97209  0.60189  0.98492  1.0000
  C  Sn50      1.0  0.99073  0.59697  0.98741  1.0000
  C  Sn51      1.0  0.08281  0.61274  0.02918  1.0000
  C   C290      1.0  0.08444  0.63601  0.06749  1.0000
  C  Sn52      1.0  0.06581  0.64095  0.06500  1.0000
  O  Te49      1.0  0.02627  0.62672  0.01997  1.0000
  O  Te50      1.0  0.98869  0.57356  0.94859  1.0000
  O  Te51      1.0  0.10167  0.60821  0.03241  1.0000
  O  Te52      1.0  0.06784  0.66434  0.10382  1.0000
  Mg  Mg25      1.0  0.01911  0.57637  0.97023  1.0000
  Mg  Mg26      1.0  0.03742  0.66154  0.08233  1.0000
  C  Sn53      1.0  0.05990  0.56707  0.04161  1.0000
  C   C291      1.0  0.08080  0.56917  0.06453  1.0000
  C  Sn54      1.0  0.08480  0.54898  0.04578  1.0000
  C  Sn55      1.0  0.06757  0.52620  0.00309  1.0000
  C   C292      1.0  0.97529  0.52707  0.98016  1.0000
  C  Sn56      1.0  0.97128  0.54726  0.99892  1.0000
  O  Te53      1.0  0.05628  0.58751  0.06098  1.0000
  O  Te54      1.0  0.10582  0.55153  0.06940  1.0000
  O  Te55      1.0  0.99981  0.50872  0.98373  1.0000
  O  Te56      1.0  0.95028  0.54472  0.97529  1.0000
  Mg  Mg27      1.0  0.10263  0.51839  0.02890  1.0000
  Mg  Mg28      1.0  0.02485  0.57488  0.01566  1.0000
  C  Sn57      1.0  0.76275  0.28339  0.88381  1.0000
  C   C293      1.0  0.78086  0.27892  0.89711  1.0000
  C  Sn58      1.0  0.80026  0.29747  0.94719  1.0000
  C  Sn59      1.0  0.80157  0.32096  0.98489  1.0000
  C   C294      1.0  0.78346  0.32542  0.97162  1.0000
  C  Sn60      1.0  0.76406  0.30689  0.92151  1.0000
  O  Te57      1.0  0.74352  0.26458  0.83352  1.0000
  O  Te58      1.0  0.81815  0.29256  0.95951  1.0000
  O  Te59      1.0  0.89221  0.33681  0.03520  1.0000
  O  Te60      1.0  0.74616  0.31178  0.90922  1.0000
  Mg  Mg29      1.0  0.91214  0.32118  0.03332  1.0000
  Mg  Mg30      1.0  0.72356  0.28022  0.83552  1.0000
  C  Sn61      1.0  0.81349  0.33662  0.93643  1.0000
  C   C295      1.0  0.82847  0.33164  0.98145  1.0000
  C  Sn62      1.0  0.91458  0.34621  0.07256  1.0000
  C  Sn63      1.0  0.91431  0.36920  0.11978  1.0000
  C   C296      1.0  0.89934  0.37417  0.07479  1.0000
  C  Sn64      1.0  0.81322  0.35960  0.98365  1.0000
  O  Te61      1.0  0.79893  0.31882  0.84534  1.0000
  O  Te62      1.0  0.92941  0.34081  0.11606  1.0000
  O  Te63      1.0  0.92889  0.38700  0.21093  1.0000
  O  Te64      1.0  0.79840  0.36499  0.94018  1.0000
  Mg  Mg31      1.0  0.94598  0.37102  0.24069  1.0000
  Mg  Mg32      1.0  0.78181  0.33480  0.81566  1.0000
  C  Sn65      1.0  0.68077  0.21801  0.94534  1.0000
  C   C297      1.0  0.70043  0.21190  0.92082  1.0000
  C  Sn66      1.0  0.72292  0.22933  0.94380  1.0000
  C  Sn67      1.0  0.72581  0.25336  0.99243  1.0000
  C   C298      1.0  0.77755  0.25649  0.01697  1.0000
  C  Sn68      1.0  0.68366  0.24204  0.99398  1.0000
  O  Te65      1.0  0.65846  0.20029  0.92167  1.0000
  O  Te66      1.0  0.74231  0.22280  0.91847  1.0000
  O  Te67      1.0  0.81954  0.26812  0.01610  1.0000
  O  Te68      1.0  0.73567  0.24560  0.01932  1.0000
  Mg  Mg33      1.0  0.76911  0.25335  0.96644  1.0000
  Mg  Mg34      1.0  0.63746  0.21802  0.97149  1.0000
  C  Sn69      1.0  0.91271  0.28497  0.10793  1.0000
  C   C299      1.0  0.89155  0.26230  0.11807  1.0000
  C  Sn70      1.0  0.87160  0.25929  0.08018  1.0000
  C  Sn71      1.0  0.87284  0.27934  0.03101  1.0000
  C   C300      1.0  0.89400  0.30199  0.02086  1.0000
  C  Sn72      1.0  0.91396  0.30502  0.05876  1.0000
  O  Te69      1.0  0.93244  0.28756  0.14637  1.0000
  O  Te70      1.0  0.85063  0.23645  0.09129  1.0000
  O  Te71      1.0  0.78170  0.27969  0.99257  1.0000
  O  Te72      1.0  0.93492  0.32784  0.04763  1.0000
  Mg  Mg35      1.0  0.82856  0.24203  0.02617  1.0000
  Mg  Mg36      1.0  0.95701  0.32228  0.11262  1.0000
  C  Sn73      1.0  0.59648  0.96950  0.89722  1.0000
  C   C301      1.0  0.58813  0.94613  0.93754  1.0000
  C  Sn74      1.0  0.67034  0.93893  0.02538  1.0000
  C  Sn75      1.0  0.68989  0.95844  0.07407  1.0000
  C   C302      1.0  0.69823  0.98179  0.03378  1.0000
  C  Sn76      1.0  0.61604  0.98901  0.94590  1.0000
  O  Te73      1.0  0.58540  0.97332  0.80934  1.0000
  O  Te74      1.0  0.66168  0.91541  0.06421  1.0000
  O  Te75      1.0  0.70097  0.95459  0.16201  1.0000
  O  Te76      1.0  0.12484  0.01251  0.90712  1.0000
  Mg  Mg37      1.0  0.68271  0.91935  0.18578  1.0000
  Mg  Mg38      1.0  0.10382  0.00860  0.78565  1.0000
  C  Sn77      1.0  0.34253  0.54815  0.95007  1.0000
  C   C303      1.0  0.35838  0.54322  0.98618  1.0000
  C  Sn78      1.0  0.44605  0.55807  0.06515  1.0000
  C  Sn79      1.0  0.44648  0.58130  0.10908  1.0000
  C   C304      1.0  0.43064  0.58622  0.07301  1.0000
  C  Sn80      1.0  0.34296  0.57137  0.99400  1.0000
  O  Te77      1.0  0.32642  0.53006  0.87106  1.0000
  O  Te78      1.0  0.46172  0.55272  0.09990  1.0000
  O  Te79      1.0  0.46261  0.59939  0.18814  1.0000
  O  Te80      1.0  0.32729  0.57672  0.95929  1.0000
  Mg  Mg39      1.0  0.48037  0.58335  0.20929  1.0000
  Mg  Mg40      1.0  0.30863  0.54610  0.85001  1.0000
  C  Sn81      1.0  0.41166  0.61397  0.01094  1.0000
  C   C305      1.0  0.36088  0.61173  0.98097  1.0000
  C  Sn82      1.0  0.38395  0.62996  0.99319  1.0000
  C  Sn83      1.0  0.45785  0.65092  0.03639  1.0000
  C   C306      1.0  0.43724  0.65611  0.06637  1.0000
  C  Sn84      1.0  0.41417  0.63789  0.05414  1.0000
  O  Te81      1.0  0.31738  0.59842  0.99802  1.0000
  O  Te82      1.0  0.40429  0.62432  0.96258  1.0000
  O  Te83      1.0  0.48076  0.66943  0.04929  1.0000
  O  Te84      1.0  0.39383  0.64352  0.08476  1.0000
  Mg  Mg41      1.0  0.43159  0.65573  0.99590  1.0000
  Mg  Mg42      1.0  0.36652  0.61212  0.05157  1.0000
  C  Sn85      1.0  0.58483  0.36728  0.05257  1.0000
  C   C307      1.0  0.54060  0.38765  0.99506  1.0000
  C  Sn86      1.0  0.54717  0.41172  0.98974  1.0000
  C  Sn87      1.0  0.59754  0.41557  0.04316  1.0000
  C   C308      1.0  0.57039  0.39817  0.10066  1.0000
  C  Sn88      1.0  0.56380  0.37409  0.10599  1.0000
  O  Te85      1.0  0.57873  0.34332  0.05681  1.0000
  O  Te86      1.0  0.57448  0.42880  0.93168  1.0000
  O  Te87      1.0  0.60365  0.43955  0.03887  1.0000
  O  Te88      1.0  0.53651  0.35702  0.16404  1.0000
  Mg  Mg43      1.0  0.57250  0.45917  0.94969  1.0000
  Mg  Mg44      1.0  0.53846  0.32665  0.14619  1.0000
  C  Sn89      1.0  0.75014  0.40559  0.01894  1.0000
  C   C309      1.0  0.75256  0.38482  0.00944  1.0000
  C  Sn90      1.0  0.66258  0.36535  0.98227  1.0000
  C  Sn91      1.0  0.64115  0.36365  0.96408  1.0000
  C   C310      1.0  0.63874  0.38442  0.97354  1.0000
  C  Sn92      1.0  0.72870  0.40389  0.00075  1.0000
  O  Te89      1.0  0.76895  0.42783  0.04618  1.0000
  O  Te90      1.0  0.66541  0.34484  0.97331  1.0000
  O  Te91      1.0  0.62233  0.34139  0.93683  1.0000
  O  Te92      1.0  0.72588  0.42440  0.00967  1.0000
  Mg  Mg45      1.0  0.63472  0.31863  0.93424  1.0000
  Mg  Mg46      1.0  0.75657  0.45062  0.04863  1.0000
  C  Sn93      1.0  0.58872  0.03856  0.96701  1.0000
  C   C311      1.0  0.58516  0.01483  0.94466  1.0000
  C  Sn94      1.0  0.60184  0.00911  0.96504  1.0000
  C  Sn95      1.0  0.69388  0.02454  0.00879  1.0000
  C   C312      1.0  0.69742  0.04826  0.03115  1.0000
  C  Sn96      1.0  0.68076  0.05399  0.01076  1.0000
  O  Te93      1.0  0.57181  0.04386  0.94600  1.0000
  O  Te94      1.0  0.09774  0.98526  0.94197  1.0000
  O  Te95      1.0  0.71079  0.01923  0.02978  1.0000
  O  Te96      1.0  0.68468  0.07783  0.03384  1.0000
  Mg  Mg47      1.0  0.12592  0.98702  0.98479  1.0000
  Mg  Mg48      1.0  0.58511  0.07904  0.99116  1.0000
  C  Sn97      1.0  0.10995  0.21207  0.48569  1.0000
  C   C313      1.0  0.11179  0.19119  0.48181  1.0000
  C  Sn98      1.0  0.09382  0.16887  0.44723  1.0000
  C  Sn99      1.0  0.07361  0.16739  0.41576  1.0000
  C   C314      1.0  0.07179  0.18826  0.41962  1.0000
  C  Sn100     1.0  0.08974  0.21059  0.45422  1.0000
  O  Te97      1.0  0.12813  0.23419  0.52051  1.0000
  O  Te98      1.0  0.09605  0.14825  0.44410  1.0000
  O  Te99      1.0  0.05543  0.14525  0.38093  1.0000
  O  Te100     1.0  0.08753  0.23120  0.45732  1.0000
  Mg  Mg49      1.0  0.06660  0.12227  0.39067  1.0000
  Mg  Mg50      1.0  0.11697  0.25719  0.51063  1.0000
  C  Sn101     1.0  0.28622  0.31518  0.46356  1.0000
  C   C315      1.0  0.30760  0.31809  0.48472  1.0000
  C  Sn102     1.0  0.31314  0.29854  0.45764  1.0000
  C  Sn103     1.0  0.29699  0.27559  0.40824  1.0000
  C   C316      1.0  0.27563  0.27269  0.38707  1.0000
  C  Sn104     1.0  0.27007  0.29223  0.41417  1.0000
  O  Te101     1.0  0.28105  0.33498  0.49131  1.0000
  O  Te102     1.0  0.33461  0.30189  0.47966  1.0000
  O  Te103     1.0  0.30217  0.25579  0.38050  1.0000
  O  Te104     1.0  0.24862  0.28889  0.39214  1.0000
  Mg  Mg51      1.0  0.33366  0.26941  0.42669  1.0000
  Mg  Mg52      1.0  0.24956  0.32135  0.44496  1.0000
  C  Sn105     1.0  0.00578  0.17308  0.50170  1.0000
  C   C317      1.0  0.99885  0.19274  0.58452  1.0000
  C  Sn106     1.0  0.01782  0.21479  0.61248  1.0000
  C  Sn107     1.0  0.04428  0.21724  0.55639  1.0000
  C   C318      1.0  0.05120  0.19759  0.47360  1.0000
  C  Sn108     1.0  0.03224  0.17553  0.44561  1.0000
  O  Te105     1.0  0.98649  0.15121  0.47509  1.0000
  O  Te106     1.0  0.01042  0.23418  0.69563  1.0000
  O  Te107     1.0  0.06357  0.23913  0.58308  1.0000
  O  Te108     1.0  0.03963  0.15615  0.36250  1.0000
  Mg  Mg53      1.0  0.04381  0.26030  0.70212  1.0000
  Mg  Mg54      1.0  0.00626  0.13003  0.35583  1.0000
  C  Sn109     1.0  0.38423  0.35652  0.36083  1.0000
  C   C319      1.0  0.38670  0.37993  0.38589  1.0000
  C  Sn110     1.0  0.36349  0.38415  0.45724  1.0000
  C  Sn111     1.0  0.33725  0.36456  0.50466  1.0000
  C   C320      1.0  0.33479  0.34116  0.47963  1.0000
  C  Sn112     1.0  0.35799  0.33693  0.40825  1.0000
  O  Te109     1.0  0.40771  0.35272  0.28931  1.0000
  O  Te110     1.0  0.36647  0.40772  0.48099  1.0000
  O  Te111     1.0  0.31376  0.36837  0.57623  1.0000
  O  Te112     1.0  0.35501  0.31338  0.38453  1.0000
  Mg  Mg55      1.0  0.32836  0.40372  0.58328  1.0000
  Mg  Mg56      1.0  0.39310  0.31736  0.28235  1.0000
  C  Sn113     1.0  0.33284  0.20418  0.63928  1.0000
  C   C321      1.0  0.31200  0.20046  0.60828  1.0000
  C  Sn114     1.0  0.31433  0.21859  0.53071  1.0000
  C  Sn115     1.0  0.33801  0.24091  0.48301  1.0000
  C   C322      1.0  0.35884  0.24463  0.51398  1.0000
  C  Sn116     1.0  0.35652  0.22650  0.59158  1.0000
  O  Te113     1.0  0.33007  0.18580  0.71697  1.0000
  O  Te114     1.0  0.29322  0.21445  0.50109  1.0000
  O  Te115     1.0  0.34076  0.25930  0.40527  1.0000
  O  Te116     1.0  0.37762  0.23063  0.62117  1.0000
  Mg  Mg57      1.0  0.30649  0.24504  0.39161  1.0000
  Mg  Mg58      1.0  0.36437  0.20005  0.73054  1.0000
  C  Sn117     1.0  0.39021  0.29429  0.49989  1.0000
  C   C323      1.0  0.38513  0.27053  0.50010  1.0000
  C  Sn118     1.0  0.39988  0.26522  0.54495  1.0000
  C  Sn119     1.0  0.42012  0.28405  0.59067  1.0000
  C   C324      1.0  0.42518  0.30780  0.59047  1.0000
  C  Sn120     1.0  0.41044  0.31313  0.54560  1.0000
  O  Te117     1.0  0.37521  0.29918  0.45462  1.0000
  O  Te118     1.0  0.39445  0.24132  0.54416  1.0000
  O  Te119     1.0  0.43512  0.27914  0.63594  1.0000
  O  Te120     1.0  0.41586  0.33700  0.54641  1.0000
  Mg  Mg59      1.0  0.42026  0.24375  0.61563  1.0000
  Mg  Mg60      1.0  0.39006  0.33460  0.47507  1.0000
  C  Sn121     1.0  0.28292  0.03597  0.43909  1.0000
  C   C325      1.0  0.26599  0.04077  0.41412  1.0000
  C  Sn122     1.0  0.24022  0.02281  0.44204  1.0000
  C  Sn123     1.0  0.73101  0.99957  0.49618  1.0000
  C   C326      1.0  0.74792  0.99478  0.52117  1.0000
  C  Sn124     1.0  0.27386  0.01273  0.49324  1.0000
  O  Te121     1.0  0.30860  0.05420  0.41042  1.0000
  O  Te122     1.0  0.22367  0.02804  0.41615  1.0000
  O  Te123     1.0  0.70530  0.98134  0.52485  1.0000
  O  Te124     1.0  0.29041  0.00752  0.51913  1.0000
  Mg  Mg61      1.0  0.69021  0.99723  0.47220  1.0000
  Mg  Mg62      1.0  0.32371  0.03831  0.46323  1.0000
  C  Sn125     1.0  0.27705  0.96573  0.44585  1.0000
  C   C327      1.0  0.25848  0.97091  0.44455  1.0000
  C  Sn126     1.0  0.23136  0.95359  0.49946  1.0000
  C  Sn127     1.0  0.22261  0.93063  0.55700  1.0000
  C   C328      1.0  0.24117  0.92547  0.55831  1.0000
  C  Sn128     1.0  0.26829  0.94277  0.50339  1.0000
  O  Te125     1.0  0.30406  0.98332  0.39040  1.0000
  O  Te126     1.0  0.21318  0.95918  0.49692  1.0000
  O  Te127     1.0  0.19557  0.91304  0.61246  1.0000
  O  Te128     1.0  0.28647  0.93720  0.50594  1.0000
  Mg  Mg63      1.0  0.17848  0.92924  0.58511  1.0000
  Mg  Mg64      1.0  0.32116  0.96713  0.41789  1.0000
  C  Sn129     1.0  0.27585  0.70971  0.51074  1.0000
  C   C329      1.0  0.30166  0.72900  0.46581  1.0000
  C  Sn130     1.0  0.30495  0.75242  0.47653  1.0000
  C  Sn131     1.0  0.28197  0.75665  0.53347  1.0000
  C   C330      1.0  0.25618  0.73737  0.57840  1.0000
  C  Sn132     1.0  0.25287  0.71394  0.56768  1.0000
  O  Te129     1.0  0.27303  0.68644  0.49905  1.0000
  O  Te130     1.0  0.33096  0.77141  0.43084  1.0000
  O  Te131     1.0  0.28481  0.77994  0.54513  1.0000
  O  Te132     1.0  0.22688  0.69495  0.61337  1.0000
  Mg  Mg65      1.0  0.32438  0.79989  0.46862  1.0000
  Mg  Mg66      1.0  0.23343  0.66648  0.57574  1.0000
  C  Sn133     1.0  0.36866  0.87816  0.60600  1.0000
  C   C331      1.0  0.37360  0.85791  0.56766  1.0000
  C  Sn134     1.0  0.35933  0.83665  0.49433  1.0000
  C  Sn135     1.0  0.33972  0.83562  0.45846  1.0000
  C   C332      1.0  0.33479  0.85587  0.49676  1.0000
  C  Sn136     1.0  0.34905  0.87713  0.57013  1.0000
  O  Te133     1.0  0.38317  0.89922  0.67927  1.0000
  O  Te134     1.0  0.36461  0.81663  0.45720  1.0000
  O  Te135     1.0  0.32521  0.81454  0.38514  1.0000
  O  Te136     1.0  0.34378  0.89714  0.60722  1.0000
  Mg  Mg67      1.0  0.33963  0.79206  0.35783  1.0000
  Mg  Mg68      1.0  0.36876  0.92173  0.70648  1.0000
  C  Sn137     1.0  0.36063  0.75223  0.58074  1.0000
  C   C333      1.0  0.36680  0.73237  0.52705  1.0000
  C  Sn138     1.0  0.35516  0.71248  0.42845  1.0000
  C  Sn139     1.0  0.33698  0.71246  0.38244  1.0000
  C   C334      1.0  0.33082  0.73232  0.43608  1.0000
  C  Sn140     1.0  0.34245  0.75221  0.53472  1.0000
  O  Te137     1.0  0.37250  0.77191  0.67921  1.0000
  O  Te138     1.0  0.36164  0.69283  0.37635  1.0000
  O  Te139     1.0  0.32511  0.69276  0.28389  1.0000
  O  Te140     1.0  0.33598  0.77185  0.58678  1.0000
  Mg  Mg69      1.0  0.34029  0.67027  0.24376  1.0000
  Mg  Mg70      1.0  0.35733  0.79443  0.71927  1.0000
  C  Sn141     1.0  0.40141  0.83266  0.57489  1.0000
  C   C335      1.0  0.40013  0.85176  0.53924  1.0000
  C  Sn142     1.0  0.42462  0.87163  0.43450  1.0000
  C  Sn143     1.0  0.45095  0.87242  0.36379  1.0000
  C   C336      1.0  0.45222  0.85332  0.39941  1.0000
  C  Sn144     1.0  0.42774  0.83345  0.50418  1.0000
  O  Te141     1.0  0.37666  0.81297  0.67993  1.0000
  O  Te142     1.0  0.42281  0.89052  0.40075  1.0000
  O  Te143     1.0  0.47571  0.89213  0.25868  1.0000
  O  Te144     1.0  0.42954  0.81457  0.53790  1.0000
  Mg  Mg71      1.0  0.46242  0.91341  0.25011  1.0000
  Mg  Mg72      1.0  0.38995  0.79166  0.68842  1.0000
  C  Sn145     1.0  0.07032  0.62229  0.39864  1.0000
  C   C337      1.0  0.06226  0.59863  0.42989  1.0000
  C  Sn146     1.0  0.07269  0.59367  0.51685  1.0000
  C  Sn147     1.0  0.09155  0.61276  0.57389  1.0000
  C   C338      1.0  0.09960  0.63640  0.54268  1.0000
  C  Sn148     1.0  0.08919  0.64138  0.45568  1.0000
  O  Te145     1.0  0.05964  0.62683  0.31147  1.0000
  O  Te146     1.0  0.06433  0.56987  0.54653  1.0000
  O  Te147     1.0  0.10223  0.60820  0.66112  1.0000
  O  Te148     1.0  0.09753  0.66516  0.42604  1.0000
  Mg  Mg73      1.0  0.08461  0.57280  0.67086  1.0000
  Mg  Mg74      1.0  0.07725  0.66225  0.30182  1.0000
  C  Sn149     1.0  0.99350  0.55997  0.47094  1.0000
  C   C339      1.0  0.99034  0.53622  0.43561  1.0000
  C  Sn150     1.0  0.00784  0.52996  0.44079  1.0000
  C  Sn151     1.0  0.02893  0.54781  0.48227  1.0000
  C   C340      1.0  0.03209  0.57154  0.51759  1.0000
  C  Sn152     1.0  0.01460  0.57781  0.51241  1.0000
  O  Te149     1.0  0.97577  0.56581  0.46502  1.0000
  O  Te150     1.0  0.00428  0.50610  0.40493  1.0000
  O  Te151     1.0  0.04667  0.54194  0.48815  1.0000
  O  Te152     1.0  0.01815  0.60166  0.54828  1.0000
  Mg  Mg75      1.0  0.03359  0.50701  0.42949  1.0000
  Mg  Mg76      1.0  0.98884  0.60077  0.52386  1.0000
  C  Sn153     1.0  0.82086  0.31749  0.34779  1.0000
  C   C341      1.0  0.80055  0.32237  0.36914  1.0000
  C  Sn154     1.0  0.77291  0.30522  0.44719  1.0000
  C  Sn155     1.0  0.76541  0.28274  0.50525  1.0000
  C   C342      1.0  0.78571  0.27787  0.48393  1.0000
  C  Sn156     1.0  0.81336  0.29501  0.40585  1.0000
  O  Te153     1.0  0.84837  0.33490  0.26942  1.0000
  O  Te154     1.0  0.75297  0.31051  0.46704  1.0000
  O  Te155     1.0  0.73788  0.26533  0.58366  1.0000
  O  Te156     1.0  0.83329  0.28973  0.38602  1.0000
  Mg  Mg77      1.0  0.71824  0.28097  0.58173  1.0000
  Mg  Mg78      1.0  0.86802  0.31926  0.27146  1.0000
  C  Sn157     1.0  0.88203  0.34768  0.62305  1.0000
  C   C343      1.0  0.90577  0.36938  0.57319  1.0000
  C  Sn158     1.0  0.93229  0.36960  0.47141  1.0000
  C  Sn159     1.0  0.93514  0.34766  0.41823  1.0000
  C   C344      1.0  0.91141  0.32598  0.46805  1.0000
  C  Sn160     1.0  0.88488  0.32574  0.56987  1.0000
  O  Te157     1.0  0.85572  0.34789  0.72481  1.0000
  O  Te158     1.0  0.95572  0.39152  0.42324  1.0000
  O  Te159     1.0  0.96148  0.34747  0.31640  1.0000
  O  Te160     1.0  0.86146  0.30384  0.61800  1.0000
  Mg  Mg79      1.0  0.98709  0.38192  0.28383  1.0000
  Mg  Mg80      1.0  0.83008  0.31341  0.75730  1.0000
  C  Sn161     1.0  0.76231  0.22807  0.47703  1.0000
  C   C345      1.0  0.78067  0.25115  0.49708  1.0000
  C  Sn162     1.0  0.80452  0.25472  0.48875  1.0000
  C  Sn163     1.0  0.81015  0.23482  0.45965  1.0000
  C   C346      1.0  0.79180  0.21176  0.43959  1.0000
  C  Sn164     1.0  0.76794  0.20817  0.44793  1.0000
  O  Te161     1.0  0.73859  0.22492  0.48582  1.0000
  O  Te162     1.0  0.82256  0.27795  0.50925  1.0000
  O  Te163     1.0  0.83390  0.23799  0.45088  1.0000
  O  Te164     1.0  0.74991  0.18496  0.42741  1.0000
  Mg  Mg81      1.0  0.85216  0.27308  0.48668  1.0000
  Mg  Mg82      1.0  0.72031  0.18981  0.44986  1.0000
  C  Sn165     1.0  0.92967  0.29844  0.51778  1.0000
  C   C347      1.0  0.91197  0.30177  0.49079  1.0000
  C  Sn166     1.0  0.88670  0.28285  0.51800  1.0000
  C  Sn167     1.0  0.87893  0.26012  0.57346  1.0000
  C   C348      1.0  0.89662  0.25679  0.60044  1.0000
  C  Sn168     1.0  0.92191  0.27570  0.57323  1.0000
  O  Te165     1.0  0.95484  0.31761  0.48979  1.0000
  O  Te166     1.0  0.86936  0.28662  0.49010  1.0000
  O  Te167     1.0  0.85374  0.24094  0.60143  1.0000
  O  Te168     1.0  0.93924  0.27194  0.60114  1.0000
  Mg  Mg83      1.0  0.83719  0.25495  0.54592  1.0000
  Mg  Mg84      1.0  0.97140  0.30360  0.54546  1.0000
  C  Sn169     1.0  0.61560  0.98769  0.56219  1.0000
  C   C349      1.0  0.64154  0.99059  0.51372  1.0000
  C  Sn170     1.0  0.65068  0.97231  0.41146  1.0000
  C  Sn171     1.0  0.63353  0.95071  0.35637  1.0000
  C   C350      1.0  0.60761  0.94782  0.40481  1.0000
  C  Sn172     1.0  0.59845  0.96608  0.50710  1.0000
  O  Te169     1.0  0.10704  0.00620  0.66447  1.0000
  O  Te170     1.0  0.67669  0.97562  0.36471  1.0000
  O  Te171     1.0  0.64226  0.93220  0.25402  1.0000
  O  Te172     1.0  0.57246  0.96279  0.55382  1.0000
  Mg  Mg85      1.0  0.67937  0.94520  0.22390  1.0000
  Mg  Mg86      1.0  0.56976  0.99320  0.69453  1.0000
  C  Sn173     1.0  0.46550  0.56681  0.52601  1.0000
  C   C351      1.0  0.44305  0.54443  0.55634  1.0000
  C  Sn174     1.0  0.42056  0.54175  0.55054  1.0000
  C  Sn175     1.0  0.42050  0.56184  0.51353  1.0000
  C   C352      1.0  0.44294  0.58420  0.48318  1.0000
  C  Sn176     1.0  0.46544  0.58691  0.48899  1.0000
  O  Te173     1.0  0.48776  0.56908  0.53245  1.0000
  O  Te174     1.0  0.39836  0.51919  0.58138  1.0000
  O  Te175     1.0  0.39821  0.55955  0.50711  1.0000
  O  Te176     1.0  0.48763  0.60944  0.45815  1.0000
  Mg  Mg87      1.0  0.37282  0.52516  0.55811  1.0000
  Mg  Mg88      1.0  0.51319  0.60349  0.48127  1.0000
  C  Sn177     1.0  0.42425  0.62977  0.53316  1.0000
  C   C353      1.0  0.44421  0.65214  0.54615  1.0000
  C  Sn178     1.0  0.46796  0.65393  0.52861  1.0000
  C  Sn179     1.0  0.47185  0.63294  0.49731  1.0000
  C   C354      1.0  0.45190  0.61059  0.48429  1.0000
  C  Sn180     1.0  0.42814  0.60878  0.50185  1.0000
  O  Te177     1.0  0.40067  0.62840  0.55111  1.0000
  O  Te178     1.0  0.48761  0.67649  0.54217  1.0000
  O  Te179     1.0  0.49545  0.63433  0.47936  1.0000
  O  Te180     1.0  0.40850  0.58624  0.48827  1.0000
  Mg  Mg89      1.0  0.51631  0.66911  0.50815  1.0000
  Mg  Mg90      1.0  0.37980  0.59360  0.52216  1.0000
  C  Sn181     1.0  0.59922  0.36998  0.54279  1.0000
  C   C355      1.0  0.62654  0.38743  0.47802  1.0000
  C  Sn182     1.0  0.63301  0.41133  0.46741  1.0000
  C  Sn183     1.0  0.61173  0.41793  0.52279  1.0000
  C   C356      1.0  0.58443  0.40048  0.58754  1.0000
  C  Sn184     1.0  0.57794  0.37658  0.59817  1.0000
  O  Te181     1.0  0.59322  0.34620  0.55224  1.0000
  O  Te182     1.0  0.66048  0.42846  0.40213  1.0000
  O  Te183     1.0  0.61775  0.44173  0.51329  1.0000
  O  Te184     1.0  0.55049  0.35945  0.66343  1.0000
  Mg  Mg91      1.0  0.65828  0.45854  0.41501  1.0000
  Mg  Mg92      1.0  0.55266  0.32938  0.65071  1.0000
  C  Sn185     1.0  0.67422  0.36586  0.39460  1.0000
  C   C357      1.0  0.69789  0.38445  0.39699  1.0000
  C  Sn186     1.0  0.69876  0.40741  0.46557  1.0000
  C  Sn187     1.0  0.67549  0.41188  0.53331  1.0000
  C   C358      1.0  0.65184  0.39330  0.53093  1.0000
  C  Sn188     1.0  0.65095  0.37034  0.46233  1.0000
  O  Te185     1.0  0.67381  0.34305  0.32542  1.0000
  O  Te186     1.0  0.72266  0.42571  0.46648  1.0000
  O  Te187     1.0  0.67593  0.43472  0.60252  1.0000
  O  Te188     1.0  0.62708  0.35205  0.46144  1.0000
  Mg  Mg93      1.0  0.71320  0.45376  0.57475  1.0000
  Mg  Mg94      1.0  0.63650  0.32398  0.35330  1.0000
  C  Sn189     1.0  0.71380  0.02650  0.44049  1.0000
  C   C359      1.0  0.72103  0.05028  0.41916  1.0000
  C  Sn190     1.0  0.70186  0.05663  0.43876  1.0000
  C  Sn191     1.0  0.67490  0.03883  0.48067  1.0000
  C   C360      1.0  0.66768  0.01506  0.50200  1.0000
  C  Sn192     1.0  0.68684  0.00870  0.48240  1.0000
  O  Te189     1.0  0.73329  0.02056  0.42029  1.0000
  O  Te190     1.0  0.70957  0.08052  0.41673  1.0000
  O  Te191     1.0  0.65540  0.04479  0.50085  1.0000
  O  Te192     1.0  0.17898  0.98482  0.50444  1.0000
  Mg  Mg95      1.0  0.67572  0.07974  0.45784  1.0000
  Mg  Mg96      1.0  0.21281  0.98559  0.46346  1.0000
