data_image0
_chemical_formula_structural       H120C186N24H144C222N24SnCSn2CSnTe4Mg2SnCSn2CSnTe4Mg2SnCSn2CSnTe4Mg2SnCSn2CSnTe4Mg2SnCSn2CSnTe4Mg2SnCSn2CSnTe4Mg2SnCSn2CSnTe4Mg2SnCSn2CSnTe4Mg2SnCSn2CSnTe4Mg2SnCSn2CSnTe4Mg2SnCSn2CSnTe4Mg2SnCSn2CSnTe4Mg2SnCSn2CSnTe4Mg2SnCSn2CSnTe4Mg2SnCSn2CSnTe4Mg2SnCSn2CSnTe4Mg2SnCSn2CSnTe4Mg2SnCSn2CSnTe4Mg2SnCSn2CSnTe4Mg2SnCSn2CSnTe4Mg2SnCSn2CSnTe4Mg2SnCSn2CSnTe4Mg2SnCSn2CSnTe4Mg2SnCSn2CSnTe4Mg2
_chemical_formula_sum              "H264 C456 N48 Sn96 Te96 Mg48"
_cell_length_a       64.3588
_cell_length_b       64.4356
_cell_length_c       8.12711
_cell_angle_alpha    107.803
_cell_angle_beta     54.7522
_cell_angle_gamma    119.95

_symmetry_space_group_name_H-M    'P1'
_space_group_IT_number       1

loop_
  _space_group_symop_operation_xyz
  'x, y, z'

loop_
  _atom_site_type_symbol
  _atom_site_label
  _atom_site_symmetry_multiplicity
  _atom_site_fract_x
  _atom_site_fract_y
  _atom_site_fract_z
  _atom_site_occupancy
  H   H1        1.0  0.19247  0.23662  0.88675  1.0000
  H   H2        1.0  0.13966  0.16114  0.94343  1.0000
  H   H3        1.0  0.21535  0.18910  0.95530  1.0000
  H   H4        1.0  0.14998  0.22120  0.87991  1.0000
  H   H5        1.0  0.24457  0.22837  0.92325  1.0000
  H   H6        1.0  0.11516  0.22738  0.98226  1.0000
  H   H7        1.0  0.07664  0.22945  0.00553  1.0000
  H   H8        1.0  0.03904  0.15264  0.94414  1.0000
  H   H9        1.0  0.07889  0.15085  0.91117  1.0000
  H   H10       1.0  0.34839  0.32139  0.97720  1.0000
  H   H11       1.0  0.38641  0.35909  0.98914  1.0000
  H   H12       1.0  0.35704  0.39901  0.89649  1.0000
  H   H13       1.0  0.31974  0.36212  0.88225  1.0000
  H   H14       1.0  0.12601  0.13302  0.11602  1.0000
  H   H15       1.0  0.11629  0.09462  0.20866  1.0000
  H   H16       1.0  0.15423  0.08818  0.16257  1.0000
  H   H17       1.0  0.21334  0.15639  0.88412  1.0000
  H   H18       1.0  0.19270  0.08086  0.96488  1.0000
  H   H19       1.0  0.26953  0.11286  0.96290  1.0000
  H   H20       1.0  0.23314  0.15759  0.02665  1.0000
  H   H21       1.0  0.21266  0.05585  0.92278  1.0000
  H   H22       1.0  0.29549  0.15611  0.95008  1.0000
  H   H23       1.0  0.37587  0.42499  0.05100  1.0000
  H   H24       1.0  0.43893  0.42586  0.97684  1.0000
  H   H25       1.0  0.47887  0.50275  0.02867  1.0000
  H   H26       1.0  0.40033  0.46925  0.05310  1.0000
  H   H27       1.0  0.46174  0.52702  0.03653  1.0000
  H   H28       1.0  0.45872  0.42677  0.10794  1.0000
  H   H29       1.0  0.54606  0.45028  0.87353  1.0000
  H   H30       1.0  0.55567  0.48870  0.78306  1.0000
  H   H31       1.0  0.51755  0.49563  0.83791  1.0000
  H   H32       1.0  0.45711  0.39382  0.02940  1.0000
  H   H33       1.0  0.48095  0.34692  0.09512  1.0000
  H   H34       1.0  0.53175  0.42287  0.05810  1.0000
  H   H35       1.0  0.42974  0.35303  0.03878  1.0000
  H   H36       1.0  0.52398  0.36194  0.08339  1.0000
  H   H37       1.0  0.38602  0.24656  0.10390  1.0000
  H   H38       1.0  0.42503  0.28349  0.10730  1.0000
  H   H39       1.0  0.39718  0.32489  0.01488  1.0000
  H   H40       1.0  0.35849  0.28874  0.01299  1.0000
  H   H41       1.0  0.20294  0.02282  0.97554  1.0000
  H   H42       1.0  0.20080  0.98442  0.97907  1.0000
  H   H43       1.0  0.27650  0.01981  0.00142  1.0000
  H   H44       1.0  0.27859  0.05878  0.99481  1.0000
  H   H45       1.0  0.19773  0.95397  0.99372  1.0000
  H   H46       1.0  0.19395  0.91484  0.01427  1.0000
  H   H47       1.0  0.26877  0.94968  0.04308  1.0000
  H   H48       1.0  0.27319  0.98845  0.01842  1.0000
  H   H49       1.0  0.25916  0.91507  0.08146  1.0000
  H   H50       1.0  0.20061  0.86086  0.04114  1.0000
  H   H51       1.0  0.23092  0.81214  0.00791  1.0000
  H   H52       1.0  0.27423  0.88749  0.07288  1.0000
  H   H53       1.0  0.26828  0.82463  0.03933  1.0000
  H   H54       1.0  0.17121  0.83206  0.98558  1.0000
  H   H55       1.0  0.13115  0.79617  0.98382  1.0000
  H   H56       1.0  0.12433  0.75588  0.00625  1.0000
  H   H57       1.0  0.19879  0.78684  0.03348  1.0000
  H   H58       1.0  0.12071  0.72383  0.01859  1.0000
  H   H59       1.0  0.15234  0.68089  0.04544  1.0000
  H   H60       1.0  0.19620  0.75735  0.04461  1.0000
  H   H61       1.0  0.09803  0.68206  0.99562  1.0000
  H   H62       1.0  0.19588  0.69877  0.03026  1.0000
  H   H63       1.0  0.30140  0.81723  0.95269  1.0000
  H   H64       1.0  0.33815  0.81265  0.93604  1.0000
  H   H65       1.0  0.37026  0.88688  0.10975  1.0000
  H   H66       1.0  0.33384  0.89167  0.11638  1.0000
  H   H67       1.0  0.47068  0.88147  0.97208  1.0000
  H   H68       1.0  0.39852  0.75360  0.94822  1.0000
  H   H69       1.0  0.39195  0.69178  0.95480  1.0000
  H   H70       1.0  0.46599  0.72087  0.98541  1.0000
  H   H71       1.0  0.43701  0.76775  0.97067  1.0000
  H   H72       1.0  0.47093  0.82379  0.96110  1.0000
  H   H73       1.0  0.54708  0.85686  0.97708  1.0000
  H   H74       1.0  0.51530  0.90014  0.95650  1.0000
  H   H75       1.0  0.49469  0.74909  0.03186  1.0000
  H   H76       1.0  0.53368  0.78497  0.04694  1.0000
  H   H77       1.0  0.54041  0.82527  0.02426  1.0000
  H   H78       1.0  0.47007  0.79389  0.94487  1.0000
  H   H79       1.0  0.00201  0.58968  0.95442  1.0000
  H   H80       1.0  0.96210  0.55278  0.95562  1.0000
  H   H81       1.0  0.98776  0.51108  0.06776  1.0000
  H   H82       1.0  0.02628  0.54750  0.07813  1.0000
  H   H83       1.0  0.95968  0.48306  0.98794  1.0000
  H   H84       1.0  0.90445  0.48945  0.99111  1.0000
  H   H85       1.0  0.85503  0.41282  0.01400  1.0000
  H   H86       1.0  0.93202  0.44141  0.99865  1.0000
  H   H87       1.0  0.87165  0.49375  0.04663  1.0000
  H   H88       1.0  0.83503  0.49770  0.05445  1.0000
  H   H89       1.0  0.79728  0.46242  0.01814  1.0000
  H   H90       1.0  0.83385  0.41786  0.95299  1.0000
  H   H91       1.0  0.76648  0.43253  0.99921  1.0000
  H   H92       1.0  0.73281  0.35678  0.88809  1.0000
  H   H93       1.0  0.80728  0.39044  0.91743  1.0000
  H   H94       1.0  0.75586  0.33315  0.84415  1.0000
  H   H95       1.0  0.86857  0.38609  0.02698  1.0000
  H   H96       1.0  0.86873  0.35213  0.95401  1.0000
  H   H97       1.0  0.86575  0.31335  0.96454  1.0000
  H   H98       1.0  0.92898  0.34800  0.12602  1.0000
  H   H99       1.0  0.93376  0.38729  0.09518  1.0000
  H   H100      1.0  0.80080  0.19272  0.00750  1.0000
  H   H101      1.0  0.91945  0.24529  0.11970  1.0000
  H   H102      1.0  0.73914  0.13797  0.98905  1.0000
  H   H103      1.0  0.76452  0.08916  0.01451  1.0000
  H   H104      1.0  0.81420  0.16560  0.99876  1.0000
  H   H105      1.0  0.86594  0.18851  0.04236  1.0000
  H   H106      1.0  0.89605  0.14391  0.07577  1.0000
  H   H107      1.0  0.93749  0.22034  0.10729  1.0000
  H   H108      1.0  0.83355  0.15998  0.07392  1.0000
  H   H109      1.0  0.79973  0.08515  0.92735  1.0000
  H   H110      1.0  0.83719  0.08125  0.90889  1.0000
  H   H111      1.0  0.87351  0.11624  0.96334  1.0000
  H   H112      1.0  0.71308  0.09545  0.97099  1.0000
  H   H113      1.0  0.57233  0.89732  0.96504  1.0000
  H   H114      1.0  0.93638  0.16113  0.10239  1.0000
  H   H115      1.0  0.41018  0.66516  0.94034  1.0000
  H   H116      1.0  0.54604  0.35798  0.17663  1.0000
  H   H117      1.0  0.58408  0.35443  0.14841  1.0000
  H   H118      1.0  0.63924  0.42636  0.93058  1.0000
  H   H119      1.0  0.60016  0.43013  0.97098  1.0000
  H   H120      1.0  0.72414  0.41491  0.02117  1.0000
  C   C1        1.0  0.18799  0.21846  0.90343  1.0000
  C   C2        1.0  0.16397  0.19892  0.91264  1.0000
  C   C3        1.0  0.15868  0.17567  0.93571  1.0000
  C   C4        1.0  0.17692  0.17155  0.95007  1.0000
  C   C5        1.0  0.20115  0.19138  0.93707  1.0000
  C   C6        1.0  0.20676  0.21470  0.91606  1.0000
  C   C7        1.0  0.14384  0.20272  0.90642  1.0000
  C   C8        1.0  0.23127  0.23414  0.92092  1.0000
  C   C9        1.0  0.10001  0.18871  0.94171  1.0000
  C   C10       1.0  0.09887  0.21091  0.96947  1.0000
  C   C11       1.0  0.07678  0.21204  0.98549  1.0000
  C   C12       1.0  0.05461  0.19124  0.97615  1.0000
  C   C13       1.0  0.05600  0.16917  0.94742  1.0000
  C   C14       1.0  0.07808  0.16794  0.93061  1.0000
  C   C15       1.0  0.33002  0.33847  0.93578  1.0000
  C   C16       1.0  0.34997  0.33825  0.95911  1.0000
  C   C17       1.0  0.37152  0.35944  0.96625  1.0000
  C   C18       1.0  0.37396  0.38189  0.95205  1.0000
  C   C19       1.0  0.35467  0.38216  0.92182  1.0000
  C   C20       1.0  0.33340  0.36107  0.91407  1.0000
  C   C21       1.0  0.17052  0.14778  0.99461  1.0000
  C   C22       1.0  0.14308  0.12983  0.08410  1.0000
  C   C23       1.0  0.13762  0.10832  0.13835  1.0000
  C   C24       1.0  0.15903  0.10449  0.10974  1.0000
  C   C25       1.0  0.18663  0.12214  0.02113  1.0000
  C   C26       1.0  0.19184  0.14323  0.96095  1.0000
  C   C27       1.0  0.20975  0.11948  0.99762  1.0000
  C   C28       1.0  0.20959  0.09688  0.97516  1.0000
  C   C29       1.0  0.23077  0.09443  0.96520  1.0000
  C   C30       1.0  0.25323  0.11500  0.97066  1.0000
  C   C31       1.0  0.25402  0.13762  0.98939  1.0000
  C   C32       1.0  0.23218  0.13969  0.00522  1.0000
  C   C33       1.0  0.22875  0.07055  0.95385  1.0000
  C   C34       1.0  0.27720  0.15887  0.99749  1.0000
  C   C35       1.0  0.24134  0.04398  0.98312  1.0000
  C   C36       1.0  0.39424  0.42300  0.01222  1.0000
  C   C37       1.0  0.41706  0.44503  0.01893  1.0000
  C   C38       1.0  0.43952  0.44360  0.99854  1.0000
  C   C39       1.0  0.46196  0.46406  0.00278  1.0000
  C   C40       1.0  0.46183  0.48645  0.02325  1.0000
  C   C41       1.0  0.43992  0.48839  0.03967  1.0000
  C   C42       1.0  0.41715  0.46749  0.04080  1.0000
  C   C43       1.0  0.44248  0.51233  0.04467  1.0000
  C   C44       1.0  0.48522  0.46155  0.97796  1.0000
  C   C45       1.0  0.48008  0.44022  0.03400  1.0000
  C   C46       1.0  0.50143  0.43561  0.99859  1.0000
  C   C47       1.0  0.52887  0.45355  0.90853  1.0000
  C   C48       1.0  0.53427  0.47517  0.85645  1.0000
  C   C49       1.0  0.51276  0.47926  0.88965  1.0000
  C   C50       1.0  0.49503  0.41176  0.04223  1.0000
  C   C51       1.0  0.47120  0.39167  0.04985  1.0000
  C   C52       1.0  0.46600  0.36845  0.06961  1.0000
  C   C53       1.0  0.48482  0.36506  0.08406  1.0000
  C   C54       1.0  0.50827  0.38479  0.08103  1.0000
  C   C55       1.0  0.51314  0.40806  0.06160  1.0000
  C   C56       1.0  0.44221  0.34825  0.06008  1.0000
  C   C57       1.0  0.52850  0.38082  0.08382  1.0000
  C   C58       1.0  0.36856  0.26427  0.05829  1.0000
  C   C59       1.0  0.38816  0.26349  0.08240  1.0000
  C   C60       1.0  0.41030  0.28423  0.08509  1.0000
  C   C61       1.0  0.41418  0.30692  0.06279  1.0000
  C   C62       1.0  0.39488  0.30787  0.03628  1.0000
  C   C63       1.0  0.37270  0.28713  0.03532  1.0000
  C   C64       1.0  0.21930  0.02246  0.98023  1.0000
  C   C65       1.0  0.21807  0.00046  0.98326  1.0000
  C   C66       1.0  0.23834  0.99845  0.99150  1.0000
  C   C67       1.0  0.26031  0.02009  0.99419  1.0000
  C   C68       1.0  0.26172  0.04224  0.99043  1.0000
  C   C69       1.0  0.23591  0.97487  0.00365  1.0000
  C   C70       1.0  0.21349  0.95344  0.00472  1.0000
  C   C71       1.0  0.21106  0.93124  0.01703  1.0000
  C   C72       1.0  0.23065  0.92906  0.03141  1.0000
  C   C73       1.0  0.25308  0.95037  0.03207  1.0000
  C   C74       1.0  0.25558  0.97256  0.01734  1.0000
  C   C75       1.0  0.24164  0.90109  0.06254  1.0000
  C   C76       1.0  0.23754  0.87648  0.05690  1.0000
  C   C77       1.0  0.21514  0.85682  0.04072  1.0000
  C   C78       1.0  0.21198  0.83325  0.02374  1.0000
  C   C79       1.0  0.23208  0.82999  0.02367  1.0000
  C   C80       1.0  0.25423  0.84917  0.04254  1.0000
  C   C81       1.0  0.25691  0.87261  0.05943  1.0000
  C   C82       1.0  0.27390  0.84384  0.04103  1.0000
  C   C83       1.0  0.18819  0.81222  0.01213  1.0000
  C   C84       1.0  0.16866  0.81450  0.99779  1.0000
  C   C85       1.0  0.14598  0.79417  0.99643  1.0000
  C   C86       1.0  0.14219  0.77126  0.00864  1.0000
  C   C87       1.0  0.16143  0.76822  0.02092  1.0000
  C   C88       1.0  0.18405  0.78897  0.02186  1.0000
  C   C89       1.0  0.15851  0.74429  0.03380  1.0000
  C   C90       1.0  0.13631  0.72302  0.03007  1.0000
  C   C91       1.0  0.13397  0.70035  0.03525  1.0000
  C   C92       1.0  0.15412  0.69861  0.04524  1.0000
  C   C93       1.0  0.17631  0.71939  0.04970  1.0000
  C   C94       1.0  0.17821  0.74195  0.04475  1.0000
  C   C95       1.0  0.11124  0.67891  0.02142  1.0000
  C   C96       1.0  0.19821  0.71725  0.04537  1.0000
  C   C97       1.0  0.31505  0.85512  0.03596  1.0000
  C   C98       1.0  0.31621  0.83260  0.98944  1.0000
  C   C99       1.0  0.33708  0.83000  0.98026  1.0000
  C   C100      1.0  0.35766  0.84953  0.01673  1.0000
  C   C101      1.0  0.35571  0.87173  0.06977  1.0000
  C   C102      1.0  0.33516  0.87448  0.07714  1.0000
  C   C103      1.0  0.46900  0.86324  0.95697  1.0000
  C   C104      1.0  0.49110  0.86164  0.95412  1.0000
  C   C105      1.0  0.39301  0.73462  0.95507  1.0000
  C   C106      1.0  0.41280  0.73027  0.96055  1.0000
  C   C107      1.0  0.40962  0.70707  0.96124  1.0000
  C   C108      1.0  0.42884  0.70412  0.97276  1.0000
  C   C109      1.0  0.45155  0.72430  0.97951  1.0000
  C   C110      1.0  0.45531  0.74761  0.97805  1.0000
  C   C111      1.0  0.43541  0.75009  0.96938  1.0000
  C   C112      1.0  0.48907  0.83911  0.95979  1.0000
  C   C113      1.0  0.50872  0.83660  0.96913  1.0000
  C   C114      1.0  0.53119  0.85770  0.96950  1.0000
  C   C115      1.0  0.53347  0.88045  0.96706  1.0000
  C   C116      1.0  0.51324  0.88241  0.95951  1.0000
  C   C117      1.0  0.47902  0.76880  0.98845  1.0000
  C   C118      1.0  0.50539  0.81265  0.98379  1.0000
  C   C119      1.0  0.49752  0.76658  0.01571  1.0000
  C   C120      1.0  0.51959  0.78693  0.02521  1.0000
  C   C121      1.0  0.52349  0.80977  0.01093  1.0000
  C   C122      1.0  0.48362  0.79193  0.97180  1.0000
  C   C123      1.0  0.01729  0.57167  0.01801  1.0000
  C   C124      1.0  0.99867  0.57259  0.98383  1.0000
  C   C125      1.0  0.97645  0.55197  0.98156  1.0000
  C   C126      1.0  0.97213  0.52929  0.00844  1.0000
  C   C127      1.0  0.99093  0.52815  0.03955  1.0000
  C   C128      1.0  0.01286  0.54888  0.04520  1.0000
  C   C129      1.0  0.94495  0.48794  0.99629  1.0000
  C   C130      1.0  0.92051  0.46768  0.99527  1.0000
  C   C131      1.0  0.90047  0.47107  0.99553  1.0000
  C   C132      1.0  0.87678  0.45166  0.99853  1.0000
  C   C133      1.0  0.87355  0.42848  0.00400  1.0000
  C   C134      1.0  0.89327  0.42467  0.00252  1.0000
  C   C135      1.0  0.91700  0.44450  0.99678  1.0000
  C   C136      1.0  0.85534  0.45511  0.00163  1.0000
  C   C137      1.0  0.85550  0.47781  0.02759  1.0000
  C   C138      1.0  0.83458  0.48002  0.03389  1.0000
  C   C139      1.0  0.81312  0.45998  0.01393  1.0000
  C   C140      1.0  0.81254  0.43706  0.98400  1.0000
  C   C141      1.0  0.83384  0.43536  0.97857  1.0000
  C   C142      1.0  0.79070  0.41512  0.95699  1.0000
  C   C143      1.0  0.76828  0.41567  0.96893  1.0000
  C   C144      1.0  0.74758  0.39492  0.94383  1.0000
  C   C145      1.0  0.74907  0.37278  0.90585  1.0000
  C   C146      1.0  0.77071  0.37163  0.89923  1.0000
  C   C147      1.0  0.79127  0.39270  0.92291  1.0000
  C   C148      1.0  0.77091  0.34848  0.88145  1.0000
  C   C149      1.0  0.88830  0.40033  0.01507  1.0000
  C   C150      1.0  0.90148  0.37285  0.02623  1.0000
  C   C151      1.0  0.88199  0.35149  0.99246  1.0000
  C   C152      1.0  0.88014  0.32936  0.00042  1.0000
  C   C153      1.0  0.89679  0.32718  0.04850  1.0000
  C   C154      1.0  0.91608  0.34863  0.08377  1.0000
  C   C155      1.0  0.91870  0.37086  0.06905  1.0000
  C   C156      1.0  0.78263  0.17912  0.99434  1.0000
  C   C157      1.0  0.77687  0.15429  0.00004  1.0000
  C   C158      1.0  0.90316  0.23066  0.09049  1.0000
  C   C159      1.0  0.90079  0.20669  0.08437  1.0000
  C   C160      1.0  0.75354  0.13467  0.99724  1.0000
  C   C161      1.0  0.74960  0.11134  0.00086  1.0000
  C   C162      1.0  0.76882  0.10761  0.00871  1.0000
  C   C163      1.0  0.79249  0.12681  0.00701  1.0000
  C   C164      1.0  0.79593  0.15007  0.00359  1.0000
  C   C165      1.0  0.87992  0.18588  0.06045  1.0000
  C   C166      1.0  0.87791  0.16295  0.05339  1.0000
  C   C167      1.0  0.89741  0.16135  0.07334  1.0000
  C   C168      1.0  0.91908  0.18190  0.08875  1.0000
  C   C169      1.0  0.92057  0.20460  0.09524  1.0000
  C   C170      1.0  0.81411  0.12326  0.99948  1.0000
  C   C171      1.0  0.85650  0.14119  0.02054  1.0000
  C   C172      1.0  0.83475  0.14282  0.03272  1.0000
  C   C173      1.0  0.81517  0.10082  0.95571  1.0000
  C   C174      1.0  0.83647  0.09867  0.94444  1.0000
  C   C175      1.0  0.85708  0.11853  0.97491  1.0000
  C   C176      1.0  0.72598  0.09092  0.98950  1.0000
  C   C177      1.0  0.55700  0.90138  0.97388  1.0000
  C   C178      1.0  0.94036  0.17946  0.09015  1.0000
  C   C179      1.0  0.42549  0.68014  0.97761  1.0000
  C   C180      1.0  0.57061  0.39436  0.07083  1.0000
  C   C181      1.0  0.56655  0.37294  0.12007  1.0000
  C   C182      1.0  0.58827  0.37091  0.10226  1.0000
  C   C183      1.0  0.61522  0.38988  0.03245  1.0000
  C   C184      1.0  0.61885  0.41129  0.98672  1.0000
  C   C185      1.0  0.59707  0.41361  0.00844  1.0000
  C   C186      1.0  0.72444  0.39713  0.96785  1.0000
  N   N1        1.0  0.23621  0.25637  0.92873  1.0000
  N   N2        1.0  0.12042  0.18522  0.93269  1.0000
  N   N3        1.0  0.27623  0.17959  0.05510  1.0000
  N   N4        1.0  0.24453  0.06716  0.98361  1.0000
  N   N5        1.0  0.39575  0.40250  0.96447  1.0000
  N   N6        1.0  0.43685  0.32643  0.07335  1.0000
  N   N7        1.0  0.22597  0.90562  0.03991  1.0000
  N   N8        1.0  0.29597  0.86050  0.04279  1.0000
  N   N9        1.0  0.21906  0.73563  0.05235  1.0000
  N   N10       1.0  0.37071  0.71746  0.95935  1.0000
  N   N11       1.0  0.44851  0.84434  0.94926  1.0000
  N   N12       1.0  0.10744  0.65768  0.03473  1.0000
  N   N13       1.0  0.94875  0.50986  0.00573  1.0000
  N   N14       1.0  0.78697  0.34625  0.91644  1.0000
  N   N15       1.0  0.90586  0.39619  0.01720  1.0000
  N   N16       1.0  0.76707  0.18444  0.97744  1.0000
  N   N17       1.0  0.88731  0.23428  0.06302  1.0000
  N   N18       1.0  0.72130  0.06915  0.99699  1.0000
  N   N19       1.0  0.55970  0.92302  0.98767  1.0000
  N   N20       1.0  0.96263  0.19783  0.07530  1.0000
  N   N21       1.0  0.42414  0.51592  0.04862  1.0000
  N   N22       1.0  0.44014  0.67705  0.02133  1.0000
  N   N23       1.0  0.55066  0.39843  0.07848  1.0000
  N   N24       1.0  0.70530  0.37957  0.93533  1.0000
  H   H121      1.0  0.20576  0.23353  0.38170  1.0000
  H   H122      1.0  0.15513  0.15756  0.42858  1.0000
  H   H123      1.0  0.22937  0.18785  0.46530  1.0000
  H   H124      1.0  0.16448  0.21814  0.37445  1.0000
  H   H125      1.0  0.25718  0.22888  0.44469  1.0000
  H   H126      1.0  0.28955  0.25738  0.46574  1.0000
  H   H127      1.0  0.32701  0.29422  0.47852  1.0000
  H   H128      1.0  0.29842  0.33501  0.38338  1.0000
  H   H129      1.0  0.26016  0.29744  0.37429  1.0000
  H   H130      1.0  0.36312  0.32351  0.40740  1.0000
  H   H131      1.0  0.40131  0.36146  0.41418  1.0000
  H   H132      1.0  0.35948  0.40095  0.47642  1.0000
  H   H133      1.0  0.32144  0.36381  0.47589  1.0000
  H   H134      1.0  0.14152  0.12967  0.59713  1.0000
  H   H135      1.0  0.13258  0.09086  0.67536  1.0000
  H   H136      1.0  0.17063  0.08451  0.62761  1.0000
  H   H137      1.0  0.22828  0.15520  0.39208  1.0000
  H   H138      1.0  0.20925  0.07847  0.44944  1.0000
  H   H139      1.0  0.28530  0.11171  0.46013  1.0000
  H   H140      1.0  0.24762  0.15521  0.52337  1.0000
  H   H141      1.0  0.22601  0.05394  0.44609  1.0000
  H   H142      1.0  0.30938  0.15570  0.46969  1.0000
  H   H143      1.0  0.39200  0.42921  0.48333  1.0000
  H   H144      1.0  0.45034  0.42676  0.46857  1.0000
  H   H145      1.0  0.48960  0.50349  0.53895  1.0000
  H   H146      1.0  0.41502  0.47115  0.50988  1.0000
  H   H147      1.0  0.46802  0.52836  0.58722  1.0000
  H   H148      1.0  0.47046  0.42820  0.61265  1.0000
  H   H149      1.0  0.55860  0.45084  0.34651  1.0000
  H   H150      1.0  0.56760  0.48895  0.25415  1.0000
  H   H151      1.0  0.52874  0.49563  0.31934  1.0000
  H   H152      1.0  0.46886  0.39500  0.53473  1.0000
  H   H153      1.0  0.49401  0.34837  0.58945  1.0000
  H   H154      1.0  0.54522  0.42423  0.53960  1.0000
  H   H155      1.0  0.43942  0.35534  0.57614  1.0000
  H   H156      1.0  0.53839  0.36384  0.56494  1.0000
  H   H157      1.0  0.40228  0.24807  0.53881  1.0000
  H   H158      1.0  0.44160  0.28506  0.53808  1.0000
  H   H159      1.0  0.40480  0.32707  0.56291  1.0000
  H   H160      1.0  0.36569  0.29068  0.56599  1.0000
  H   H161      1.0  0.21252  0.95165  0.49546  1.0000
  H   H162      1.0  0.20892  0.91248  0.51379  1.0000
  H   H163      1.0  0.28564  0.94723  0.51710  1.0000
  H   H164      1.0  0.28940  0.98604  0.50077  1.0000
  H   H165      1.0  0.27249  0.91372  0.60114  1.0000
  H   H166      1.0  0.21606  0.85841  0.55076  1.0000
  H   H167      1.0  0.25124  0.81172  0.47757  1.0000
  H   H168      1.0  0.29099  0.88716  0.56923  1.0000
  H   H169      1.0  0.29389  0.82701  0.45762  1.0000
  H   H170      1.0  0.19169  0.83065  0.45422  1.0000
  H   H171      1.0  0.15230  0.79489  0.44092  1.0000
  H   H172      1.0  0.14468  0.75454  0.47104  1.0000
  H   H173      1.0  0.21423  0.78565  0.56034  1.0000
  H   H174      1.0  0.13708  0.72281  0.52735  1.0000
  H   H175      1.0  0.16902  0.67910  0.54060  1.0000
  H   H176      1.0  0.21348  0.75543  0.53915  1.0000
  H   H177      1.0  0.11140  0.68217  0.54204  1.0000
  H   H178      1.0  0.21426  0.69799  0.52295  1.0000
  H   H179      1.0  0.23669  0.69682  0.62860  1.0000
  H   H180      1.0  0.27694  0.69739  0.59943  1.0000
  H   H181      1.0  0.32390  0.77151  0.43831  1.0000
  H   H182      1.0  0.28264  0.77093  0.47267  1.0000
  H   H183      1.0  0.31666  0.69600  0.39579  1.0000
  H   H184      1.0  0.35371  0.69294  0.39393  1.0000
  H   H185      1.0  0.38404  0.76777  0.55327  1.0000
  H   H186      1.0  0.34643  0.77062  0.56696  1.0000
  H   H187      1.0  0.49201  0.88706  0.46228  1.0000
  H   H188      1.0  0.41974  0.76150  0.44681  1.0000
  H   H189      1.0  0.41159  0.69919  0.45103  1.0000
  H   H190      1.0  0.48561  0.72534  0.47629  1.0000
  H   H191      1.0  0.45811  0.77464  0.47853  1.0000
  H   H192      1.0  0.49193  0.82895  0.45249  1.0000
  H   H193      1.0  0.56711  0.86259  0.48309  1.0000
  H   H194      1.0  0.53553  0.90538  0.45328  1.0000
  H   H195      1.0  0.51640  0.75408  0.51408  1.0000
  H   H196      1.0  0.55646  0.78980  0.51675  1.0000
  H   H197      1.0  0.56350  0.83021  0.49498  1.0000
  H   H198      1.0  0.48956  0.79960  0.46168  1.0000
  H   H199      1.0  0.00789  0.59161  0.55786  1.0000
  H   H200      1.0  0.96802  0.55493  0.55614  1.0000
  H   H201      1.0  0.01143  0.51245  0.40549  1.0000
  H   H202      1.0  0.05130  0.54865  0.40034  1.0000
  H   H203      1.0  0.97016  0.48560  0.53267  1.0000
  H   H204      1.0  0.91782  0.49100  0.49741  1.0000
  H   H205      1.0  0.87077  0.41434  0.48407  1.0000
  H   H206      1.0  0.94487  0.44272  0.50826  1.0000
  H   H207      1.0  0.88931  0.49565  0.50134  1.0000
  H   H208      1.0  0.85389  0.50018  0.49727  1.0000
  H   H209      1.0  0.81503  0.46504  0.47430  1.0000
  H   H210      1.0  0.84438  0.41916  0.48910  1.0000
  H   H211      1.0  0.78153  0.43593  0.49584  1.0000
  H   H212      1.0  0.74587  0.36041  0.38411  1.0000
  H   H213      1.0  0.82023  0.39186  0.41395  1.0000
  H   H214      1.0  0.76681  0.33539  0.34191  1.0000
  H   H215      1.0  0.88506  0.38769  0.47067  1.0000
  H   H216      1.0  0.75261  0.30322  0.46252  1.0000
  H   H217      1.0  0.74965  0.26463  0.48125  1.0000
  H   H218      1.0  0.83201  0.29971  0.40171  1.0000
  H   H219      1.0  0.83432  0.33856  0.38992  1.0000
  H   H220      1.0  0.75629  0.23377  0.37900  1.0000
  H   H221      1.0  0.75352  0.19506  0.40257  1.0000
  H   H222      1.0  0.81962  0.23224  0.53421  1.0000
  H   H223      1.0  0.82076  0.27035  0.52904  1.0000
  H   H224      1.0  0.86912  0.27981  0.49131  1.0000
  H   H225      1.0  0.86721  0.24180  0.52382  1.0000
  H   H226      1.0  0.93641  0.28151  0.62179  1.0000
  H   H227      1.0  0.93743  0.31884  0.60108  1.0000
  H   H228      1.0  0.81986  0.19852  0.47241  1.0000
  H   H229      1.0  0.94001  0.25056  0.54079  1.0000
  H   H230      1.0  0.75747  0.14314  0.49060  1.0000
  H   H231      1.0  0.78365  0.09492  0.51394  1.0000
  H   H232      1.0  0.83369  0.17140  0.48677  1.0000
  H   H233      1.0  0.88325  0.19280  0.54399  1.0000
  H   H234      1.0  0.91465  0.15012  0.58545  1.0000
  H   H235      1.0  0.95730  0.22681  0.57879  1.0000
  H   H236      1.0  0.84927  0.16451  0.60831  1.0000
  H   H237      1.0  0.82138  0.09214  0.39060  1.0000
  H   H238      1.0  0.85869  0.08785  0.37257  1.0000
  H   H239      1.0  0.89367  0.12243  0.44512  1.0000
  H   H240      1.0  0.72968  0.10158  0.50113  1.0000
  H   H241      1.0  0.58955  0.90431  0.50672  1.0000
  H   H242      1.0  0.63069  0.93152  0.36127  1.0000
  H   H243      1.0  0.66987  0.96868  0.35699  1.0000
  H   H244      1.0  0.62286  0.00911  0.53685  1.0000
  H   H245      1.0  0.58368  0.97150  0.53394  1.0000
  H   H246      1.0  0.95442  0.16727  0.60200  1.0000
  H   H247      1.0  0.48109  0.62909  0.56673  1.0000
  H   H248      1.0  0.48657  0.66916  0.54667  1.0000
  H   H249      1.0  0.41818  0.63646  0.44177  1.0000
  H   H250      1.0  0.41248  0.59693  0.46362  1.0000
  H   H251      1.0  0.42469  0.67152  0.45751  1.0000
  H   H252      1.0  0.56024  0.36074  0.67558  1.0000
  H   H253      1.0  0.59907  0.35786  0.64129  1.0000
  H   H254      1.0  0.65374  0.42889  0.40438  1.0000
  H   H255      1.0  0.61386  0.43207  0.45018  1.0000
  H   H256      1.0  0.63652  0.35238  0.46948  1.0000
  H   H257      1.0  0.67592  0.34970  0.43669  1.0000
  H   H258      1.0  0.71663  0.42651  0.45940  1.0000
  H   H259      1.0  0.67727  0.42925  0.50237  1.0000
  H   H260      1.0  0.74027  0.41968  0.50160  1.0000
  H   H261      1.0  0.68765  0.99493  0.51957  1.0000
  H   H262      1.0  0.72756  0.03155  0.52209  1.0000
  H   H263      1.0  0.70186  0.07432  0.42236  1.0000
  H   H264      1.0  0.66312  0.03822  0.41091  1.0000
  C   C187      1.0  0.20180  0.21555  0.39800  1.0000
  C   C188      1.0  0.17821  0.19565  0.40440  1.0000
  C   C189      1.0  0.17350  0.17258  0.42706  1.0000
  C   C190      1.0  0.19166  0.16930  0.44916  1.0000
  C   C191      1.0  0.21527  0.18964  0.44258  1.0000
  C   C192      1.0  0.22051  0.21264  0.41720  1.0000
  C   C193      1.0  0.15816  0.19952  0.39845  1.0000
  C   C194      1.0  0.24431  0.23319  0.42417  1.0000
  C   C195      1.0  0.27171  0.27468  0.42009  1.0000
  C   C196      1.0  0.29123  0.27427  0.44737  1.0000
  C   C197      1.0  0.31274  0.29535  0.45376  1.0000
  C   C198      1.0  0.31595  0.31798  0.43433  1.0000
  C   C199      1.0  0.29642  0.31821  0.40624  1.0000
  C   C200      1.0  0.27490  0.29714  0.39909  1.0000
  C   C201      1.0  0.33890  0.34029  0.44011  1.0000
  C   C202      1.0  0.36196  0.34032  0.42338  1.0000
  C   C203      1.0  0.38381  0.36160  0.42386  1.0000
  C   C204      1.0  0.38376  0.38398  0.44175  1.0000
  C   C205      1.0  0.36069  0.38414  0.45993  1.0000
  C   C206      1.0  0.33898  0.36289  0.45916  1.0000
  C   C207      1.0  0.18574  0.14549  0.48985  1.0000
  C   C208      1.0  0.15872  0.12685  0.56731  1.0000
  C   C209      1.0  0.15368  0.10496  0.61198  1.0000
  C   C210      1.0  0.17516  0.10126  0.58330  1.0000
  C   C211      1.0  0.20234  0.11961  0.50687  1.0000
  C   C212      1.0  0.20713  0.14127  0.45849  1.0000
  C   C213      1.0  0.22539  0.11712  0.48611  1.0000
  C   C214      1.0  0.22571  0.09471  0.46299  1.0000
  C   C215      1.0  0.24690  0.09264  0.45650  1.0000
  C   C216      1.0  0.26897  0.11353  0.46556  1.0000
  C   C217      1.0  0.26915  0.13603  0.48682  1.0000
  C   C218      1.0  0.24719  0.13750  0.49959  1.0000
  C   C219      1.0  0.24436  0.06864  0.45116  1.0000
  C   C220      1.0  0.29165  0.15798  0.49922  1.0000
  C   C221      1.0  0.40747  0.42546  0.47535  1.0000
  C   C222      1.0  0.42986  0.44651  0.49491  1.0000
  C   C223      1.0  0.45112  0.44457  0.48901  1.0000
  C   C224      1.0  0.47321  0.46487  0.49996  1.0000
  C   C225      1.0  0.47309  0.48744  0.52443  1.0000
  C   C226      1.0  0.45219  0.48974  0.52865  1.0000
  C   C227      1.0  0.43070  0.46911  0.51164  1.0000
  C   C228      1.0  0.45337  0.51343  0.54378  1.0000
  C   C229      1.0  0.49667  0.46219  0.47130  1.0000
  C   C230      1.0  0.49193  0.44120  0.52999  1.0000
  C   C231      1.0  0.51369  0.43659  0.48780  1.0000
  C   C232      1.0  0.54119  0.45421  0.38760  1.0000
  C   C233      1.0  0.54623  0.47556  0.33367  1.0000
  C   C234      1.0  0.52432  0.47957  0.37321  1.0000
  C   C235      1.0  0.50770  0.41304  0.53424  1.0000
  C   C236      1.0  0.48350  0.39298  0.54971  1.0000
  C   C237      1.0  0.47852  0.36977  0.56800  1.0000
  C   C238      1.0  0.49792  0.36646  0.57610  1.0000
  C   C239      1.0  0.52161  0.38629  0.56988  1.0000
  C   C240      1.0  0.52633  0.40938  0.54796  1.0000
  C   C241      1.0  0.45387  0.34997  0.56663  1.0000
  C   C242      1.0  0.54226  0.38266  0.57137  1.0000
  C   C243      1.0  0.38018  0.26600  0.55581  1.0000
  C   C244      1.0  0.40240  0.26520  0.54534  1.0000
  C   C245      1.0  0.42482  0.28590  0.54273  1.0000
  C   C246      1.0  0.42642  0.30871  0.55027  1.0000
  C   C247      1.0  0.40449  0.30987  0.55859  1.0000
  C   C248      1.0  0.38208  0.28901  0.56075  1.0000
  C   C249      1.0  0.25123  0.97251  0.49838  1.0000
  C   C250      1.0  0.22869  0.95109  0.50111  1.0000
  C   C251      1.0  0.22642  0.92884  0.51134  1.0000
  C   C252      1.0  0.24655  0.92670  0.51910  1.0000
  C   C253      1.0  0.26933  0.94798  0.51434  1.0000
  C   C254      1.0  0.27143  0.97015  0.50481  1.0000
  C   C255      1.0  0.25683  0.89937  0.56431  1.0000
  C   C256      1.0  0.25383  0.87514  0.55626  1.0000
  C   C257      1.0  0.23157  0.85507  0.54287  1.0000
  C   C258      1.0  0.22966  0.83184  0.51946  1.0000
  C   C259      1.0  0.25108  0.82929  0.50627  1.0000
  C   C260      1.0  0.27273  0.84893  0.52809  1.0000
  C   C261      1.0  0.27385  0.87198  0.55546  1.0000
  C   C262      1.0  0.29427  0.84499  0.51257  1.0000
  C   C263      1.0  0.20620  0.81067  0.50635  1.0000
  C   C264      1.0  0.18822  0.81307  0.47453  1.0000
  C   C265      1.0  0.16606  0.79283  0.46543  1.0000
  C   C266      1.0  0.16168  0.76993  0.48412  1.0000
  C   C267      1.0  0.17933  0.76688  0.51525  1.0000
  C   C268      1.0  0.20115  0.78756  0.52780  1.0000
  C   C269      1.0  0.17561  0.74286  0.53266  1.0000
  C   C270      1.0  0.15301  0.72180  0.53323  1.0000
  C   C271      1.0  0.15066  0.69894  0.53446  1.0000
  C   C272      1.0  0.17104  0.69689  0.53945  1.0000
  C   C273      1.0  0.19318  0.71761  0.54566  1.0000
  C   C274      1.0  0.19523  0.74020  0.54138  1.0000
  C   C275      1.0  0.12699  0.67805  0.52853  1.0000
  C   C276      1.0  0.21543  0.71612  0.54192  1.0000
  C   C277      1.0  0.25723  0.73375  0.54307  1.0000
  C   C278      1.0  0.25601  0.71305  0.57994  1.0000
  C   C279      1.0  0.27887  0.71337  0.56282  1.0000
  C   C280      1.0  0.30409  0.73419  0.50898  1.0000
  C   C281      1.0  0.30483  0.75506  0.47993  1.0000
  C   C282      1.0  0.28189  0.75488  0.49814  1.0000
  C   C283      1.0  0.32801  0.73339  0.48765  1.0000
  C   C284      1.0  0.33087  0.71162  0.43603  1.0000
  C   C285      1.0  0.35179  0.70984  0.43122  1.0000
  C   C286      1.0  0.37150  0.72984  0.47237  1.0000
  C   C287      1.0  0.36954  0.75198  0.51640  1.0000
  C   C288      1.0  0.34822  0.75358  0.52384  1.0000
  C   C289      1.0  0.48974  0.86868  0.45142  1.0000
  C   C290      1.0  0.51165  0.86684  0.44908  1.0000
  C   C291      1.0  0.41356  0.74251  0.46022  1.0000
  C   C292      1.0  0.43314  0.73750  0.46316  1.0000
  C   C293      1.0  0.42948  0.71399  0.45794  1.0000
  C   C294      1.0  0.44846  0.70988  0.46336  1.0000
  C   C295      1.0  0.47146  0.72947  0.47233  1.0000
  C   C296      1.0  0.47559  0.75315  0.47798  1.0000
  C   C297      1.0  0.45601  0.75666  0.47311  1.0000
  C   C298      1.0  0.50990  0.84431  0.45311  1.0000
  C   C299      1.0  0.52956  0.84198  0.46451  1.0000
  C   C300      1.0  0.55152  0.86330  0.47070  1.0000
  C   C301      1.0  0.55374  0.88594  0.46585  1.0000
  C   C302      1.0  0.53372  0.88769  0.45438  1.0000
  C   C303      1.0  0.49973  0.77407  0.48577  1.0000
  C   C304      1.0  0.52673  0.81803  0.47627  1.0000
  C   C305      1.0  0.51912  0.77167  0.50103  1.0000
  C   C306      1.0  0.54181  0.79192  0.50284  1.0000
  C   C307      1.0  0.54575  0.81489  0.49049  1.0000
  C   C308      1.0  0.50416  0.79735  0.47422  1.0000
  C   C309      1.0  0.03266  0.57315  0.48427  1.0000
  C   C310      1.0  0.00885  0.57433  0.52442  1.0000
  C   C311      1.0  0.98622  0.55381  0.52652  1.0000
  C   C312      1.0  0.98602  0.53095  0.49212  1.0000
  C   C313      1.0  0.01014  0.52965  0.44494  1.0000
  C   C314      1.0  0.03281  0.55026  0.44128  1.0000
  C   C315      1.0  0.95741  0.48975  0.50951  1.0000
  C   C316      1.0  0.93374  0.46910  0.50078  1.0000
  C   C317      1.0  0.91411  0.47256  0.49634  1.0000
  C   C318      1.0  0.89087  0.45325  0.49273  1.0000
  C   C319      1.0  0.88818  0.43008  0.48948  1.0000
  C   C320      1.0  0.90726  0.42618  0.49523  1.0000
  C   C321      1.0  0.93027  0.44589  0.50160  1.0000
  C   C322      1.0  0.86962  0.45677  0.49479  1.0000
  C   C323      1.0  0.87184  0.47975  0.49845  1.0000
  C   C324      1.0  0.85176  0.48230  0.49620  1.0000
  C   C325      1.0  0.82952  0.46233  0.48562  1.0000
  C   C326      1.0  0.82675  0.43909  0.48014  1.0000
  C   C327      1.0  0.84676  0.43701  0.48878  1.0000
  C   C328      1.0  0.80449  0.41735  0.45635  1.0000
  C   C329      1.0  0.78263  0.41876  0.46646  1.0000
  C   C330      1.0  0.76174  0.39853  0.43990  1.0000
  C   C331      1.0  0.76231  0.37600  0.40307  1.0000
  C   C332      1.0  0.78332  0.37395  0.39761  1.0000
  C   C333      1.0  0.80436  0.39460  0.42150  1.0000
  C   C334      1.0  0.78208  0.35016  0.38027  1.0000
  C   C335      1.0  0.90210  0.40144  0.49611  1.0000
  C   C336      1.0  0.79415  0.32390  0.42064  1.0000
  C   C337      1.0  0.77027  0.30255  0.44641  1.0000
  C   C338      1.0  0.76866  0.28061  0.45652  1.0000
  C   C339      1.0  0.79070  0.27873  0.44056  1.0000
  C   C340      1.0  0.81437  0.30018  0.41625  1.0000
  C   C341      1.0  0.81592  0.32219  0.40870  1.0000
  C   C342      1.0  0.78893  0.25545  0.45160  1.0000
  C   C343      1.0  0.90431  0.30257  0.53552  1.0000
  C   C344      1.0  0.76985  0.23367  0.41748  1.0000
  C   C345      1.0  0.76838  0.21180  0.42781  1.0000
  C   C346      1.0  0.78648  0.21059  0.46601  1.0000
  C   C347      1.0  0.80573  0.23228  0.49903  1.0000
  C   C348      1.0  0.80651  0.25403  0.49443  1.0000
  C   C349      1.0  0.88389  0.28038  0.52074  1.0000
  C   C350      1.0  0.88286  0.25890  0.53696  1.0000
  C   C351      1.0  0.90249  0.25865  0.56382  1.0000
  C   C352      1.0  0.92226  0.28082  0.58568  1.0000
  C   C353      1.0  0.92286  0.30208  0.57338  1.0000
  C   C354      1.0  0.80053  0.18400  0.47991  1.0000
  C   C355      1.0  0.79565  0.15977  0.49418  1.0000
  C   C356      1.0  0.92068  0.23484  0.56097  1.0000
  C   C357      1.0  0.91926  0.21190  0.57007  1.0000
  C   C358      1.0  0.77212  0.13998  0.49670  1.0000
  C   C359      1.0  0.76831  0.11678  0.50057  1.0000
  C   C360      1.0  0.78782  0.11326  0.50600  1.0000
  C   C361      1.0  0.81140  0.13264  0.50415  1.0000
  C   C362      1.0  0.81500  0.15593  0.49732  1.0000
  C   C363      1.0  0.89761  0.19070  0.56111  1.0000
  C   C364      1.0  0.89571  0.16812  0.56128  1.0000
  C   C365      1.0  0.91588  0.16731  0.57795  1.0000
  C   C366      1.0  0.93796  0.18825  0.58433  1.0000
  C   C367      1.0  0.93979  0.21070  0.57773  1.0000
  C   C368      1.0  0.83283  0.12903  0.49834  1.0000
  C   C369      1.0  0.87433  0.14640  0.52941  1.0000
  C   C370      1.0  0.85198  0.14795  0.54953  1.0000
  C   C371      1.0  0.83553  0.10716  0.43485  1.0000
  C   C372      1.0  0.85691  0.10489  0.42145  1.0000
  C   C373      1.0  0.87651  0.12433  0.46465  1.0000
  C   C374      1.0  0.74418  0.09665  0.49540  1.0000
  C   C375      1.0  0.57646  0.90738  0.47922  1.0000
  C   C376      1.0  0.60352  0.94874  0.46091  1.0000
  C   C377      1.0  0.62842  0.94834  0.40720  1.0000
  C   C378      1.0  0.65060  0.96939  0.40462  1.0000
  C   C379      1.0  0.64908  0.99178  0.45611  1.0000
  C   C380      1.0  0.62466  0.99216  0.49976  1.0000
  C   C381      1.0  0.60249  0.97116  0.50058  1.0000
  C   C382      1.0  0.95897  0.18575  0.58860  1.0000
  C   C383      1.0  0.44632  0.60957  0.51664  1.0000
  C   C384      1.0  0.46737  0.63050  0.53759  1.0000
  C   C385      1.0  0.47059  0.65311  0.52674  1.0000
  C   C386      1.0  0.45310  0.65608  0.49314  1.0000
  C   C387      1.0  0.43187  0.63520  0.47258  1.0000
  C   C388      1.0  0.42853  0.61259  0.48598  1.0000
  C   C389      1.0  0.44321  0.68510  0.46597  1.0000
  C   C390      1.0  0.58452  0.39659  0.55891  1.0000
  C   C391      1.0  0.58085  0.37556  0.61134  1.0000
  C   C392      1.0  0.60298  0.37390  0.59055  1.0000
  C   C393      1.0  0.62992  0.39290  0.51504  1.0000
  C   C394      1.0  0.63328  0.41393  0.46555  1.0000
  C   C395      1.0  0.61112  0.41585  0.48969  1.0000
  C   C396      1.0  0.65339  0.39102  0.49190  1.0000
  C   C397      1.0  0.65367  0.36868  0.47299  1.0000
  C   C398      1.0  0.67579  0.36701  0.45220  1.0000
  C   C399      1.0  0.69883  0.38761  0.45001  1.0000
  C   C400      1.0  0.69902  0.41008  0.46404  1.0000
  C   C401      1.0  0.67679  0.41164  0.48604  1.0000
  C   C402      1.0  0.73942  0.40146  0.45841  1.0000
  C   C403      1.0  0.67221  0.01360  0.46413  1.0000
  C   C404      1.0  0.69092  0.01221  0.49441  1.0000
  C   C405      1.0  0.71314  0.03263  0.49862  1.0000
  C   C406      1.0  0.71738  0.05549  0.47674  1.0000
  C   C407      1.0  0.69868  0.05707  0.44726  1.0000
  C   C408      1.0  0.67666  0.03656  0.44085  1.0000
  N   N25       1.0  0.24927  0.25482  0.40926  1.0000
  N   N26       1.0  0.13468  0.18228  0.42323  1.0000
  N   N27       1.0  0.29073  0.17867  0.53897  1.0000
  N   N28       1.0  0.26168  0.06505  0.46149  1.0000
  N   N29       1.0  0.40626  0.40414  0.44978  1.0000
  N   N30       1.0  0.44995  0.32792  0.55175  1.0000
  N   N31       1.0  0.24239  0.90334  0.52434  1.0000
  N   N32       1.0  0.31257  0.86175  0.55690  1.0000
  N   N33       1.0  0.23552  0.73519  0.55324  1.0000
  N   N34       1.0  0.39084  0.72545  0.47042  1.0000
  N   N35       1.0  0.46890  0.84994  0.44720  1.0000
  N   N36       1.0  0.12450  0.65637  0.50911  1.0000
  N   N37       1.0  0.96252  0.51138  0.49365  1.0000
  N   N38       1.0  0.79753  0.34696  0.41525  1.0000
  N   N39       1.0  0.91706  0.39630  0.52137  1.0000
  N   N40       1.0  0.78296  0.18756  0.47308  1.0000
  N   N41       1.0  0.90055  0.23627  0.57169  1.0000
  N   N42       1.0  0.74049  0.07474  0.48399  1.0000
  N   N43       1.0  0.58052  0.92855  0.46181  1.0000
  N   N44       1.0  0.98160  0.20362  0.57323  1.0000
  N   N45       1.0  0.43807  0.51653  0.50678  1.0000
  N   N46       1.0  0.45885  0.67989  0.48309  1.0000
  N   N47       1.0  0.56404  0.40040  0.57117  1.0000
  N   N48       1.0  0.71985  0.38390  0.43049  1.0000
  C  Sn1       1.0  0.73963  0.00206  0.39232  1.0000
  C   C409      1.0  0.25552  0.99726  0.42726  1.0000
  C  Sn2       1.0  0.77222  0.01523  0.50357  1.0000
  C  Sn3       1.0  0.77273  0.03847  0.54599  1.0000
  C   C410      1.0  0.75669  0.04326  0.51109  1.0000
  C  Sn4       1.0  0.74014  0.02531  0.43474  1.0000
  O  Te1       1.0  0.22308  0.98383  0.31597  1.0000
  O  Te2       1.0  0.78809  0.01000  0.53719  1.0000
  O  Te3       1.0  0.78914  0.05671  0.62239  1.0000
  O  Te4       1.0  0.72428  0.03052  0.40116  1.0000
  Mg  Mg1       1.0  0.80708  0.04082  0.64289  1.0000
  Mg  Mg2       1.0  0.20511  0.99972  0.29557  1.0000
  C  Sn5       1.0  0.35495  0.21533  0.51995  1.0000
  C   C411      1.0  0.35994  0.23865  0.50608  1.0000
  C  Sn6       1.0  0.33919  0.24324  0.53156  1.0000
  C  Sn7       1.0  0.31291  0.22415  0.57188  1.0000
  C   C412      1.0  0.30793  0.20085  0.58577  1.0000
  C  Sn8       1.0  0.32866  0.19623  0.56027  1.0000
  O  Te5       1.0  0.37599  0.21115  0.49396  1.0000
  O  Te6       1.0  0.34467  0.26670  0.51694  1.0000
  O  Te7       1.0  0.29186  0.22835  0.59786  1.0000
  O  Te8       1.0  0.32319  0.17279  0.57491  1.0000
  Mg  Mg3       1.0  0.30934  0.26335  0.56401  1.0000
  Mg  Mg4       1.0  0.35850  0.17612  0.52796  1.0000
  C  Sn9       1.0  0.88534  0.33261  0.50357  1.0000
  C   C413      1.0  0.90541  0.32624  0.46868  1.0000
  C  Sn10      1.0  0.92939  0.34369  0.47276  1.0000
  C  Sn11      1.0  0.93339  0.36802  0.51268  1.0000
  C   C414      1.0  0.91332  0.37438  0.54758  1.0000
  C  Sn12      1.0  0.88934  0.35694  0.54349  1.0000
  O  Te9       1.0  0.86152  0.31486  0.49877  1.0000
  O  Te10      1.0  0.94917  0.33689  0.43736  1.0000
  O  Te11      1.0  0.95723  0.38577  0.51745  1.0000
  O  Te12      1.0  0.86957  0.36373  0.57890  1.0000
  Mg  Mg5       1.0  0.97817  0.36761  0.45998  1.0000
  Mg  Mg6       1.0  0.84055  0.33302  0.55642  1.0000
  C  Sn13      1.0  0.34215  0.21358  0.01032  1.0000
  C   C415      1.0  0.34774  0.23729  0.00231  1.0000
  C  Sn14      1.0  0.32687  0.24302  0.04368  1.0000
  C  Sn15      1.0  0.29984  0.22467  0.09425  1.0000
  C   C416      1.0  0.29426  0.20097  0.10228  1.0000
  C  Sn16      1.0  0.31512  0.19523  0.06089  1.0000
  O  Te13      1.0  0.29194  0.21122  0.96840  1.0000
  O  Te14      1.0  0.33297  0.26685  0.03465  1.0000
  O  Te15      1.0  0.27866  0.23000  0.13618  1.0000
  O  Te16      1.0  0.30904  0.17141  0.06994  1.0000
  Mg  Mg7       1.0  0.29715  0.26512  0.10436  1.0000
  Mg  Mg8       1.0  0.34483  0.17312  0.00037  1.0000
  C  Sn17      1.0  0.75488  0.29673  0.99553  1.0000
  C   C417      1.0  0.77545  0.31968  0.98866  1.0000
  C  Sn18      1.0  0.80114  0.32269  0.94608  1.0000
  C  Sn19      1.0  0.80639  0.30234  0.90947  1.0000
  C   C418      1.0  0.78584  0.27940  0.91632  1.0000
  C  Sn20      1.0  0.76014  0.27637  0.95893  1.0000
  O  Te17      1.0  0.80075  0.29118  0.03838  1.0000
  O  Te18      1.0  0.82137  0.34582  0.94010  1.0000
  O  Te19      1.0  0.83195  0.30495  0.86660  1.0000
  O  Te20      1.0  0.73992  0.25326  0.96488  1.0000
  Mg  Mg9       1.0  0.85288  0.34011  0.87528  1.0000
  Mg  Mg10      1.0  0.77981  0.25599  0.02958  1.0000
  C  Sn21      1.0  0.06944  0.16703  0.51699  1.0000
  C   C419      1.0  0.06816  0.18781  0.51153  1.0000
  C  Sn22      1.0  0.09236  0.20909  0.44129  1.0000
  C  Sn23      1.0  0.11839  0.20959  0.37499  1.0000
  C   C420      1.0  0.11966  0.18882  0.38043  1.0000
  C  Sn24      1.0  0.09546  0.16753  0.45069  1.0000
  O  Te21      1.0  0.04498  0.14596  0.58779  1.0000
  O  Te22      1.0  0.09055  0.22964  0.43732  1.0000
  O  Te23      1.0  0.14285  0.23069  0.30416  1.0000
  O  Te24      1.0  0.09726  0.14699  0.45464  1.0000
  Mg  Mg11      1.0  0.12969  0.25400  0.32780  1.0000
  Mg  Mg12      1.0  0.05814  0.12262  0.56403  1.0000
  C  Sn25      1.0  0.37949  0.69858  0.00162  1.0000
  C   C421      1.0  0.37577  0.71944  0.03686  1.0000
  C  Sn26      1.0  0.39741  0.74193  0.02190  1.0000
  C  Sn27      1.0  0.35193  0.74657  0.97051  1.0000
  C   C422      1.0  0.35565  0.72572  0.93527  1.0000
  C  Sn28      1.0  0.33401  0.70322  0.95024  1.0000
  O  Te25      1.0  0.35757  0.67629  0.01742  1.0000
  O  Te26      1.0  0.39318  0.76253  0.05788  1.0000
  O  Te27      1.0  0.37386  0.76888  0.95474  1.0000
  O  Te28      1.0  0.33823  0.68263  0.91425  1.0000
  Mg  Mg13      1.0  0.42937  0.78879  0.01777  1.0000
  Mg  Mg14      1.0  0.30206  0.65636  0.95421  1.0000
  C  Sn29      1.0  0.43675  0.87352  0.36213  1.0000
  C   C423      1.0  0.41014  0.85512  0.41669  1.0000
  C  Sn30      1.0  0.40080  0.83486  0.51114  1.0000
  C  Sn31      1.0  0.41843  0.83296  0.55203  1.0000
  C   C424      1.0  0.44502  0.85135  0.49752  1.0000
  C  Sn32      1.0  0.45438  0.87161  0.40302  1.0000
  O  Te29      1.0  0.44565  0.89361  0.26786  1.0000
  O  Te30      1.0  0.37412  0.81670  0.56421  1.0000
  O  Te31      1.0  0.40951  0.81285  0.64638  1.0000
  O  Te32      1.0  0.48105  0.88977  0.35000  1.0000
  Mg  Mg15      1.0  0.37143  0.79287  0.68979  1.0000
  Mg  Mg16      1.0  0.48375  0.91361  0.22451  1.0000
  C  Sn33      1.0  0.04512  0.62221  0.02323  1.0000
  C   C425      1.0  0.97209  0.60189  0.98492  1.0000
  C  Sn34      1.0  0.99073  0.59697  0.98741  1.0000
  C  Sn35      1.0  0.08281  0.61274  0.02918  1.0000
  C   C426      1.0  0.08444  0.63601  0.06749  1.0000
  C  Sn36      1.0  0.06581  0.64095  0.06500  1.0000
  O  Te33      1.0  0.02627  0.62672  0.01997  1.0000
  O  Te34      1.0  0.98869  0.57356  0.94859  1.0000
  O  Te35      1.0  0.10167  0.60821  0.03241  1.0000
  O  Te36      1.0  0.06784  0.66434  0.10382  1.0000
  Mg  Mg17      1.0  0.01911  0.57637  0.97023  1.0000
  Mg  Mg18      1.0  0.03742  0.66154  0.08233  1.0000
  C  Sn37      1.0  0.55317  0.95896  0.96683  1.0000
  C   C427      1.0  0.56051  0.98255  0.93917  1.0000
  C  Sn38      1.0  0.54137  0.98862  0.95524  1.0000
  C  Sn39      1.0  0.58573  0.96779  0.00002  1.0000
  C   C428      1.0  0.57840  0.94422  0.02768  1.0000
  C  Sn40      1.0  0.59753  0.93813  0.01161  1.0000
  O  Te37      1.0  0.57264  0.95329  0.95007  1.0000
  O  Te38      1.0  0.04935  0.01232  0.92690  1.0000
  O  Te39      1.0  0.56626  0.97347  0.01676  1.0000
  O  Te40      1.0  0.58972  0.91445  0.03996  1.0000
  Mg  Mg19      1.0  0.01550  0.01119  0.96529  1.0000
  Mg  Mg20      1.0  0.62354  0.91555  0.00171  1.0000
  C  Sn41      1.0  0.67233  0.40818  0.91183  1.0000
  C   C429      1.0  0.64613  0.39008  0.95005  1.0000
  C  Sn42      1.0  0.70862  0.36463  0.01042  1.0000
  C  Sn43      1.0  0.72626  0.36012  0.03320  1.0000
  C   C430      1.0  0.68104  0.38117  0.99502  1.0000
  C  Sn44      1.0  0.68997  0.40367  0.93460  1.0000
  O  Te41      1.0  0.68081  0.43053  0.85164  1.0000
  O  Te42      1.0  0.68234  0.34682  0.04770  1.0000
  O  Te43      1.0  0.71776  0.33774  0.09343  1.0000
  O  Te44      1.0  0.71623  0.42147  0.89737  1.0000
  Mg  Mg21      1.0  0.68014  0.31927  0.12649  1.0000
  Mg  Mg22      1.0  0.71845  0.44903  0.81867  1.0000
  C  Sn45      1.0  0.91271  0.28497  0.10793  1.0000
  C   C431      1.0  0.89155  0.26230  0.11807  1.0000
  C  Sn46      1.0  0.87160  0.25929  0.08018  1.0000
  C  Sn47      1.0  0.87284  0.27934  0.03101  1.0000
  C   C432      1.0  0.89400  0.30199  0.02086  1.0000
  C  Sn48      1.0  0.91396  0.30502  0.05876  1.0000
  O  Te45      1.0  0.93244  0.28756  0.14637  1.0000
  O  Te46      1.0  0.85063  0.23645  0.09129  1.0000
  O  Te47      1.0  0.78170  0.27969  0.99257  1.0000
  O  Te48      1.0  0.93492  0.32784  0.04763  1.0000
  Mg  Mg23      1.0  0.82856  0.24203  0.02617  1.0000
  Mg  Mg24      1.0  0.95701  0.32228  0.11262  1.0000
  C  Sn49      1.0  0.09779  0.60774  0.46671  1.0000
  C   C433      1.0  0.10536  0.63149  0.44149  1.0000
  C  Sn50      1.0  0.08647  0.63791  0.45759  1.0000
  C  Sn51      1.0  0.05945  0.62023  0.49991  1.0000
  C   C434      1.0  0.05189  0.59650  0.52514  1.0000
  C  Sn52      1.0  0.07077  0.59006  0.50903  1.0000
  O  Te49      1.0  0.11701  0.60173  0.44997  1.0000
  O  Te50      1.0  0.09452  0.66176  0.43171  1.0000
  O  Te51      1.0  0.04023  0.62626  0.51664  1.0000
  O  Te52      1.0  0.06274  0.56623  0.53492  1.0000
  Mg  Mg25      1.0  0.06096  0.66112  0.46904  1.0000
  Mg  Mg26      1.0  0.09627  0.56685  0.49773  1.0000
  C  Sn53      1.0  0.36481  0.88090  0.49709  1.0000
  C   C435      1.0  0.34177  0.86225  0.48664  1.0000
  C  Sn54      1.0  0.33510  0.83849  0.50349  1.0000
  C  Sn55      1.0  0.35180  0.83326  0.53150  1.0000
  C   C436      1.0  0.37482  0.85189  0.54197  1.0000
  C  Sn56      1.0  0.38150  0.87566  0.52509  1.0000
  O  Te53      1.0  0.37108  0.90452  0.47988  1.0000
  O  Te54      1.0  0.31197  0.82016  0.49252  1.0000
  O  Te55      1.0  0.34550  0.80961  0.54871  1.0000
  O  Te56      1.0  0.40461  0.89399  0.53609  1.0000
  Mg  Mg27      1.0  0.31189  0.79085  0.52428  1.0000
  Mg  Mg28      1.0  0.40470  0.92330  0.50445  1.0000
  C  Sn57      1.0  0.01271  0.17561  0.88094  1.0000
  C   C437      1.0  0.03128  0.19225  0.94553  1.0000
  C  Sn58      1.0  0.09616  0.20715  0.08830  1.0000
  C  Sn59      1.0  0.07054  0.20841  0.16830  1.0000
  C   C438      1.0  0.05199  0.19178  0.10375  1.0000
  C  Sn60      1.0  0.98710  0.17687  0.96094  1.0000
  O  Te57      1.0  0.01966  0.15790  0.73808  1.0000
  O  Te58      1.0  0.11505  0.22359  0.15049  1.0000
  O  Te59      1.0  0.06360  0.22614  0.31126  1.0000
  O  Te60      1.0  0.96821  0.16044  0.89879  1.0000
  Mg  Mg29      1.0  0.09616  0.24442  0.34843  1.0000
  Mg  Mg30      1.0  0.98708  0.13959  0.70094  1.0000
  C  Sn61      1.0  0.26874  0.30392  0.90436  1.0000
  C   C439      1.0  0.26422  0.27992  0.88360  1.0000
  C  Sn62      1.0  0.27981  0.27333  0.90924  1.0000
  C  Sn63      1.0  0.30033  0.29109  0.95674  1.0000
  C   C440      1.0  0.30483  0.31508  0.97751  1.0000
  C  Sn64      1.0  0.28925  0.32169  0.95186  1.0000
  O  Te61      1.0  0.25291  0.31011  0.87808  1.0000
  O  Te62      1.0  0.27493  0.24922  0.88766  1.0000
  O  Te63      1.0  0.31616  0.28489  0.98302  1.0000
  O  Te64      1.0  0.29412  0.34578  0.97346  1.0000
  Mg  Mg31      1.0  0.30181  0.24971  0.93814  1.0000
  Mg  Mg32      1.0  0.26724  0.34531  0.92312  1.0000
  C  Sn65      1.0  0.38051  0.82655  0.08229  1.0000
  C   C441      1.0  0.37899  0.84566  0.04914  1.0000
  C  Sn66      1.0  0.33195  0.86859  0.94489  1.0000
  C  Sn67      1.0  0.35840  0.86948  0.87211  1.0000
  C   C442      1.0  0.35992  0.85038  0.90523  1.0000
  C  Sn68      1.0  0.40696  0.82743  0.00951  1.0000
  O  Te65      1.0  0.35589  0.80676  0.18688  1.0000
  O  Te66      1.0  0.32989  0.88749  0.91366  1.0000
  O  Te67      1.0  0.38303  0.88929  0.76746  1.0000
  O  Te68      1.0  0.40901  0.80855  0.04071  1.0000
  Mg  Mg33      1.0  0.36940  0.91054  0.76265  1.0000
  Mg  Mg34      1.0  0.36952  0.78548  0.19161  1.0000
  C  Sn69      1.0  0.80359  0.24683  0.88707  1.0000
  C   C443      1.0  0.78371  0.25297  0.91578  1.0000
  C  Sn70      1.0  0.75574  0.23653  0.99603  1.0000
  C  Sn71      1.0  0.81886  0.21051  0.04882  1.0000
  C   C444      1.0  0.83873  0.20437  0.02014  1.0000
  C  Sn72      1.0  0.79531  0.22376  0.93986  1.0000
  O  Te69      1.0  0.83143  0.26355  0.80662  1.0000
  O  Te70      1.0  0.80764  0.24012  0.02327  1.0000
  O  Te71      1.0  0.79099  0.19378  0.12931  1.0000
  O  Te72      1.0  0.81480  0.21722  0.91264  1.0000
  Mg  Mg35      1.0  0.77219  0.21112  0.13809  1.0000
  Mg  Mg36      1.0  0.85025  0.24621  0.79795  1.0000
  C  Sn73      1.0  0.20220  0.75506  0.93363  1.0000
  C   C445      1.0  0.17518  0.73727  0.99187  1.0000
  C  Sn74      1.0  0.23683  0.71371  0.08409  1.0000
  C  Sn75      1.0  0.25444  0.71084  0.11894  1.0000
  C   C446      1.0  0.28143  0.72862  0.06075  1.0000
  C  Sn76      1.0  0.21981  0.75219  0.96848  1.0000
  O  Te73      1.0  0.21151  0.77551  0.84169  1.0000
  O  Te74      1.0  0.20974  0.69617  0.14093  1.0000
  O  Te75      1.0  0.24510  0.69037  0.21096  1.0000
  O  Te76      1.0  0.24687  0.76973  0.91169  1.0000
  Mg  Mg37      1.0  0.20657  0.67151  0.26126  1.0000
  Mg  Mg38      1.0  0.25006  0.79440  0.79144  1.0000
  C  Sn77      1.0  0.03122  0.22156  0.55847  1.0000
  C   C447      1.0  0.01104  0.20532  0.50746  1.0000
  C  Sn78      1.0  0.00712  0.18138  0.46184  1.0000
  C  Sn79      1.0  0.02370  0.17349  0.46743  1.0000
  C   C448      1.0  0.04387  0.18972  0.51845  1.0000
  C  Sn80      1.0  0.04781  0.21367  0.56407  1.0000
  O  Te77      1.0  0.03478  0.24541  0.60354  1.0000
  O  Te78      1.0  0.98682  0.16548  0.41119  1.0000
  O  Te79      1.0  0.02013  0.14961  0.42230  1.0000
  O  Te80      1.0  0.06809  0.22956  0.61472  1.0000
  Mg  Mg39      1.0  0.98980  0.13477  0.36201  1.0000
  Mg  Mg40      1.0  0.06511  0.26027  0.66403  1.0000
  C  Sn81      1.0  0.58872  0.03856  0.96701  1.0000
  C   C449      1.0  0.58516  0.01483  0.94466  1.0000
  C  Sn82      1.0  0.60184  0.00911  0.96504  1.0000
  C  Sn83      1.0  0.69388  0.02454  0.00879  1.0000
  C   C450      1.0  0.69742  0.04826  0.03115  1.0000
  C  Sn84      1.0  0.68076  0.05399  0.01076  1.0000
  O  Te81      1.0  0.57181  0.04386  0.94600  1.0000
  O  Te82      1.0  0.09774  0.98526  0.94197  1.0000
  O  Te83      1.0  0.71079  0.01923  0.02978  1.0000
  O  Te84      1.0  0.68468  0.07783  0.03384  1.0000
  Mg  Mg41      1.0  0.12592  0.98702  0.98479  1.0000
  Mg  Mg42      1.0  0.58511  0.07904  0.99116  1.0000
  C  Sn85      1.0  0.41470  0.55978  0.61443  1.0000
  C   C451      1.0  0.43742  0.58208  0.57760  1.0000
  C  Sn86      1.0  0.46442  0.58355  0.48127  1.0000
  C  Sn87      1.0  0.46879  0.56228  0.42036  1.0000
  C   C452      1.0  0.44607  0.53999  0.45717  1.0000
  C  Sn88      1.0  0.41907  0.53851  0.55353  1.0000
  O  Te85      1.0  0.38789  0.55874  0.71095  1.0000
  O  Te86      1.0  0.48681  0.60605  0.44615  1.0000
  O  Te87      1.0  0.49562  0.56334  0.32378  1.0000
  O  Te88      1.0  0.39669  0.51603  0.58862  1.0000
  Mg  Mg43      1.0  0.51940  0.59817  0.30946  1.0000
  Mg  Mg44      1.0  0.36409  0.52389  0.72519  1.0000
  C  Sn89      1.0  0.40689  0.62841  0.13142  1.0000
  C   C453      1.0  0.42963  0.65075  0.09108  1.0000
  C  Sn90      1.0  0.38520  0.65526  0.99772  1.0000
  C  Sn91      1.0  0.38953  0.63404  0.94343  1.0000
  C   C454      1.0  0.36680  0.61172  0.98373  1.0000
  C  Sn92      1.0  0.41122  0.60719  0.07712  1.0000
  O  Te89      1.0  0.38011  0.62729  0.22487  1.0000
  O  Te90      1.0  0.40761  0.67780  0.95900  1.0000
  O  Te91      1.0  0.41634  0.63518  0.84991  1.0000
  O  Te92      1.0  0.38882  0.58467  0.11581  1.0000
  Mg  Mg45      1.0  0.44016  0.67004  0.82864  1.0000
  Mg  Mg46      1.0  0.35627  0.59241  0.24606  1.0000
  C  Sn93      1.0  0.40419  0.55778  0.06647  1.0000
  C   C455      1.0  0.42330  0.58058  0.08264  1.0000
  C  Sn94      1.0  0.44756  0.58348  0.06426  1.0000
  C  Sn95      1.0  0.45284  0.56317  0.02886  1.0000
  C   C456      1.0  0.43373  0.54039  0.01268  1.0000
  C  Sn96      1.0  0.40946  0.53747  0.03107  1.0000
  O  Te93      1.0  0.38007  0.55530  0.08534  1.0000
  O  Te94      1.0  0.46635  0.60646  0.08105  1.0000
  O  Te95      1.0  0.47697  0.56567  0.01000  1.0000
  O  Te96      1.0  0.39068  0.51451  0.01427  1.0000
  Mg  Mg47      1.0  0.49625  0.60064  0.04423  1.0000
  Mg  Mg48      1.0  0.36078  0.52031  0.05095  1.0000
