data_image0
_chemical_formula_structural       H112C174N24H104C162N24C2Sn2C2HTe2HMgC2Sn2C2HTe2HMgC2Sn2C2HTe2HMgC2Sn2C2HTe2HMgC2Sn2C2HTe2HMgC2Sn2C2HTe2HMgC2Sn2C2HTe2HMgC2Sn2C2HTe2HMgC2Sn2C2HTe2HMgC2Sn2C2HTe2HMgC2Sn2C2HTe2HMgC2Sn2C2HTe2HMg
_chemical_formula_sum              "H240 C384 N48 Sn24 Te24 Mg12"
_cell_length_a       51.3006
_cell_length_b       51.4572
_cell_length_c       8.02494
_cell_angle_alpha    108.72
_cell_angle_beta     54.1031
_cell_angle_gamma    119.506

_symmetry_space_group_name_H-M    'P1'
_space_group_IT_number       1

loop_
  _space_group_symop_operation_xyz
  'x, y, z'

loop_
  _atom_site_type_symbol
  _atom_site_label
  _atom_site_symmetry_multiplicity
  _atom_site_fract_x
  _atom_site_fract_y
  _atom_site_fract_z
  _atom_site_occupancy
  H   H1        1.0  0.26830  0.68878  0.07214  1.0000
  H   H2        1.0  0.44594  0.76294  0.91343  1.0000
  H   H3        1.0  0.43745  0.68843  0.95812  1.0000
  H   H4        1.0  0.53370  0.72545  0.95510  1.0000
  H   H5        1.0  0.50127  0.78261  0.89322  1.0000
  H   H6        1.0  0.56902  0.77609  0.92246  1.0000
  H   H7        1.0  0.42075  0.65732  0.15569  1.0000
  H   H8        1.0  0.40808  0.60962  0.25202  1.0000
  H   H9        1.0  0.45624  0.59903  0.17860  1.0000
  H   H10       1.0  0.53090  0.68209  0.87848  1.0000
  H   H11       1.0  0.50362  0.58673  0.94458  1.0000
  H   H12       1.0  0.59914  0.62217  0.94284  1.0000
  H   H13       1.0  0.55621  0.68187  0.02060  1.0000
  H   H14       1.0  0.63217  0.67656  0.95078  1.0000
  H   H15       1.0  0.52846  0.55322  0.88695  1.0000
  H   H16       1.0  0.50778  0.51357  0.02351  1.0000
  H   H17       1.0  0.50214  0.46331  0.03730  1.0000
  H   H18       1.0  0.60576  0.50197  0.93814  1.0000
  H   H19       1.0  0.61174  0.55196  0.91911  1.0000
  H   H20       1.0  0.58812  0.46159  0.04373  1.0000
  H   H21       1.0  0.98595  0.61202  0.99013  1.0000
  H   H22       1.0  0.05141  0.60378  0.02377  1.0000
  H   H23       1.0  0.11156  0.69928  0.01990  1.0000
  H   H24       1.0  0.01708  0.66440  0.01638  1.0000
  H   H25       1.0  0.09443  0.73281  0.01834  1.0000
  H   H26       1.0  0.09177  0.59801  0.96748  1.0000
  H   H27       1.0  0.13803  0.59204  0.95047  1.0000
  H   H28       1.0  0.18528  0.63546  0.98705  1.0000
  H   H29       1.0  0.13998  0.69285  0.06413  1.0000
  H   H30       1.0  0.21736  0.66968  0.06182  1.0000
  H   H31       1.0  0.27240  0.76465  0.08036  1.0000
  H   H32       1.0  0.17947  0.72786  0.05365  1.0000
  H   H33       1.0  0.02929  0.82217  0.88478  1.0000
  H   H34       1.0  0.09654  0.89186  0.95471  1.0000
  H   H35       1.0  0.05352  0.94864  0.98538  1.0000
  H   H36       1.0  0.00420  0.85367  0.92099  1.0000
  H   H37       1.0  0.13423  0.92654  0.95764  1.0000
  H   H38       1.0  0.17951  0.02077  0.08089  1.0000
  H   H39       1.0  0.13381  0.02684  0.09215  1.0000
  H   H40       1.0  0.08747  0.98351  0.04606  1.0000
  H   H41       1.0  0.16136  0.91994  0.01953  1.0000
  H   H42       1.0  0.25795  0.95590  0.00166  1.0000
  H   H43       1.0  0.22089  0.01553  0.01199  1.0000
  H   H44       1.0  0.17945  0.88696  0.02421  1.0000
  H   H45       1.0  0.29256  0.00862  0.98408  1.0000
  H   H46       1.0  0.17582  0.84469  0.98338  1.0000
  H   H47       1.0  0.17172  0.79562  0.00088  1.0000
  H   H48       1.0  0.25871  0.83926  0.09533  1.0000
  H   H49       1.0  0.26394  0.88832  0.06690  1.0000
  H   H50       1.0  0.25374  0.79703  0.06695  1.0000
  H   H51       1.0  0.38154  0.17352  0.99930  1.0000
  H   H52       1.0  0.44688  0.16849  0.05892  1.0000
  H   H53       1.0  0.50541  0.26334  0.03996  1.0000
  H   H54       1.0  0.41095  0.22449  0.01863  1.0000
  H   H55       1.0  0.49993  0.18983  0.06793  1.0000
  H   H56       1.0  0.51181  0.30083  0.00558  1.0000
  H   H57       1.0  0.47246  0.35946  0.02630  1.0000
  H   H58       1.0  0.42120  0.31571  0.03518  1.0000
  H   H59       1.0  0.41338  0.26479  0.04085  1.0000
  H   H60       1.0  0.54810  0.33305  0.03464  1.0000
  H   H61       1.0  0.60662  0.42741  0.04370  1.0000
  H   H62       1.0  0.51437  0.39377  0.01450  1.0000
  H   H63       1.0  0.59861  0.35072  0.05098  1.0000
  H   H64       1.0  0.54784  0.18466  0.90707  1.0000
  H   H65       1.0  0.59638  0.18155  0.88801  1.0000
  H   H66       1.0  0.62793  0.27343  0.10379  1.0000
  H   H67       1.0  0.57997  0.27678  0.11786  1.0000
  H   H68       1.0  0.64793  0.34548  0.89123  1.0000
  H   H69       1.0  0.69754  0.34267  0.86178  1.0000
  H   H70       1.0  0.72504  0.43261  0.11632  1.0000
  H   H71       1.0  0.67653  0.43590  0.13648  1.0000
  H   H72       1.0  0.77472  0.42965  0.93957  1.0000
  H   H73       1.0  0.67570  0.26753  0.96196  1.0000
  H   H74       1.0  0.66831  0.19092  0.97014  1.0000
  H   H75       1.0  0.76212  0.22601  0.98547  1.0000
  H   H76       1.0  0.72672  0.28542  0.96647  1.0000
  H   H77       1.0  0.77137  0.35626  0.94694  1.0000
  H   H78       1.0  0.86509  0.39492  0.97551  1.0000
  H   H79       1.0  0.82809  0.45124  0.94873  1.0000
  H   H80       1.0  0.80048  0.26047  0.00432  1.0000
  H   H81       1.0  0.85032  0.30450  0.01072  1.0000
  H   H82       1.0  0.85910  0.35514  0.99173  1.0000
  H   H83       1.0  0.76669  0.31816  0.95717  1.0000
  H   H84       1.0  0.89504  0.44533  0.99074  1.0000
  H   H85       1.0  0.61370  0.81121  0.89939  1.0000
  H   H86       1.0  0.66165  0.85841  0.90706  1.0000
  H   H87       1.0  0.61434  0.90934  0.92152  1.0000
  H   H88       1.0  0.56625  0.86212  0.91429  1.0000
  H   H89       1.0  0.65772  0.70928  0.11288  1.0000
  H   H90       1.0  0.70461  0.75675  0.13560  1.0000
  H   H91       1.0  0.66493  0.80716  0.06880  1.0000
  H   H92       1.0  0.61814  0.75996  0.04888  1.0000
  H   H93       1.0  0.64590  0.94263  0.03000  1.0000
  H   H94       1.0  0.70979  0.84129  0.03863  1.0000
  H   H95       1.0  0.72114  0.93724  0.96928  1.0000
  H   H96       1.0  0.76995  0.03188  0.08214  1.0000
  H   H97       1.0  0.67746  0.99663  0.05197  1.0000
  H   H98       1.0  0.77392  0.83513  0.09826  1.0000
  H   H99       1.0  0.83823  0.92930  0.04288  1.0000
  H   H100      1.0  0.74226  0.89339  0.04258  1.0000
  H   H101      1.0  0.85409  0.96370  0.88280  1.0000
  H   H102      1.0  0.86607  0.01224  0.80273  1.0000
  H   H103      1.0  0.81839  0.02211  0.86388  1.0000
  H   H104      1.0  0.74486  0.93534  0.11247  1.0000
  H   H105      1.0  0.82881  0.85314  0.06840  1.0000
  H   H106      1.0  0.00071  0.92860  0.99809  1.0000
  H   H107      1.0  0.68928  0.15727  0.95972  1.0000
  H   H108      1.0  0.66828  0.11833  0.10152  1.0000
  H   H109      1.0  0.66309  0.06798  0.10753  1.0000
  H   H110      1.0  0.76623  0.10662  0.01581  1.0000
  H   H111      1.0  0.77182  0.15682  0.00374  1.0000
  H   H112      1.0  0.74804  0.06538  0.11918  1.0000
  C   C1        1.0  0.27353  0.71214  0.06942  1.0000
  C   C2        1.0  0.44020  0.73974  0.92478  1.0000
  C   C3        1.0  0.46650  0.73553  0.92368  1.0000
  C   C4        1.0  0.46103  0.70703  0.94805  1.0000
  C   C5        1.0  0.48470  0.70271  0.96040  1.0000
  C   C6        1.0  0.51510  0.72776  0.94082  1.0000
  C   C7        1.0  0.52112  0.75640  0.91669  1.0000
  C   C8        1.0  0.49648  0.76021  0.90957  1.0000
  C   C9        1.0  0.55175  0.78176  0.91403  1.0000
  C   C10       1.0  0.47694  0.67341  0.00904  1.0000
  C   C11       1.0  0.44225  0.65227  0.11290  1.0000
  C   C12       1.0  0.43511  0.62544  0.16850  1.0000
  C   C13       1.0  0.46216  0.61927  0.12503  1.0000
  C   C14       1.0  0.49707  0.64000  0.02262  1.0000
  C   C15       1.0  0.50380  0.66657  0.96392  1.0000
  C   C16       1.0  0.52596  0.63490  0.98713  1.0000
  C   C17       1.0  0.52506  0.60599  0.95624  1.0000
  C   C18       1.0  0.55114  0.60140  0.94161  1.0000
  C   C19       1.0  0.57934  0.62611  0.95179  1.0000
  C   C20       1.0  0.58113  0.65497  0.97710  1.0000
  C   C21       1.0  0.55437  0.65911  0.99561  1.0000
  C   C22       1.0  0.60981  0.68064  0.99335  1.0000
  C   C23       1.0  0.54789  0.57103  0.92542  1.0000
  C   C24       1.0  0.56078  0.53634  0.96536  1.0000
  C   C25       1.0  0.52954  0.51106  0.00071  1.0000
  C   C26       1.0  0.52605  0.48298  0.01074  1.0000
  C   C27       1.0  0.55304  0.47893  0.99044  1.0000
  C   C28       1.0  0.58424  0.50426  0.95608  1.0000
  C   C29       1.0  0.58787  0.53231  0.94444  1.0000
  C   C30       1.0  0.56605  0.44403  0.02735  1.0000
  C   C31       1.0  0.56035  0.41347  0.03148  1.0000
  C   C32       1.0  0.02622  0.90157  0.95459  1.0000
  C   C33       1.0  0.00174  0.60607  0.01067  1.0000
  C   C34       1.0  0.03123  0.63133  0.02200  1.0000
  C   C35       1.0  0.05602  0.62678  0.02383  1.0000
  C   C36       1.0  0.08543  0.65083  0.02303  1.0000
  C   C37       1.0  0.08901  0.67982  0.02332  1.0000
  C   C38       1.0  0.06459  0.68482  0.02290  1.0000
  C   C39       1.0  0.03546  0.66034  0.02202  1.0000
  C   C40       1.0  0.07130  0.71542  0.01200  1.0000
  C   C41       1.0  0.11269  0.64629  0.01396  1.0000
  C   C42       1.0  0.11232  0.61765  0.98415  1.0000
  C   C43       1.0  0.13855  0.61428  0.97409  1.0000
  C   C44       1.0  0.16540  0.63898  0.99450  1.0000
  C   C45       1.0  0.16639  0.66792  0.02731  1.0000
  C   C46       1.0  0.13980  0.67073  0.03574  1.0000
  C   C47       1.0  0.19422  0.69466  0.05338  1.0000
  C   C48       1.0  0.21919  0.69172  0.06346  1.0000
  C   C49       1.0  0.24721  0.71667  0.07326  1.0000
  C   C50       1.0  0.25024  0.74545  0.07687  1.0000
  C   C51       1.0  0.22518  0.74903  0.07437  1.0000
  C   C52       1.0  0.19738  0.72369  0.06296  1.0000
  C   C53       1.0  0.04920  0.84043  0.91732  1.0000
  C   C54       1.0  0.05129  0.87020  0.93079  1.0000
  C   C55       1.0  0.07786  0.89573  0.95146  1.0000
  C   C56       1.0  0.07954  0.92450  0.97172  1.0000
  C   C57       1.0  0.05336  0.92682  0.97100  1.0000
  C   C58       1.0  0.02551  0.87312  0.93199  1.0000
  C   C59       1.0  0.10707  0.95126  0.99989  1.0000
  C   C60       1.0  0.13375  0.94849  0.99106  1.0000
  C   C61       1.0  0.16020  0.97282  0.01960  1.0000
  C   C62       1.0  0.15977  0.00127  0.05608  1.0000
  C   C63       1.0  0.13368  0.00466  0.06471  1.0000
  C   C64       1.0  0.10742  0.98006  0.03832  1.0000
  C   C65       1.0  0.18741  0.96839  0.01187  1.0000
  C   C66       1.0  0.18422  0.93952  0.01139  1.0000
  C   C67       1.0  0.20935  0.93497  0.00729  1.0000
  C   C68       1.0  0.23875  0.95970  0.00306  1.0000
  C   C69       1.0  0.24213  0.98854  0.00817  1.0000
  C   C70       1.0  0.21662  0.99263  0.01171  1.0000
  C   C71       1.0  0.20373  0.90468  0.01582  1.0000
  C   C72       1.0  0.27198  0.01407  0.01314  1.0000
  C   C73       1.0  0.22035  0.87031  0.02585  1.0000
  C   C74       1.0  0.19414  0.84382  0.00720  1.0000
  C   C75       1.0  0.19160  0.81617  0.01737  1.0000
  C   C76       1.0  0.21440  0.81358  0.04962  1.0000
  C   C77       1.0  0.24068  0.84010  0.06849  1.0000
  C   C78       1.0  0.24372  0.86777  0.05375  1.0000
  C   C79       1.0  0.22998  0.77924  0.06974  1.0000
  C   C80       1.0  0.39591  0.16841  0.03720  1.0000
  C   C81       1.0  0.42566  0.19411  0.04259  1.0000
  C   C82       1.0  0.45034  0.19085  0.05233  1.0000
  C   C83       1.0  0.47911  0.21612  0.04924  1.0000
  C   C84       1.0  0.48263  0.24467  0.04082  1.0000
  C   C85       1.0  0.45832  0.24864  0.03236  1.0000
  C   C86       1.0  0.43002  0.22276  0.03119  1.0000
  C   C87       1.0  0.50579  0.21271  0.04926  1.0000
  C   C88       1.0  0.46226  0.27890  0.02477  1.0000
  C   C89       1.0  0.49174  0.30419  0.01478  1.0000
  C   C90       1.0  0.49617  0.33352  0.01844  1.0000
  C   C91       1.0  0.47017  0.33725  0.02504  1.0000
  C   C92       1.0  0.44102  0.31246  0.03067  1.0000
  C   C93       1.0  0.43675  0.28356  0.03271  1.0000
  C   C94       1.0  0.52663  0.35943  0.02314  1.0000
  C   C95       1.0  0.55106  0.35537  0.03212  1.0000
  C   C96       1.0  0.57982  0.37958  0.03830  1.0000
  C   C97       1.0  0.58425  0.40878  0.03884  1.0000
  C   C98       1.0  0.53184  0.38882  0.02311  1.0000
  C   C99       1.0  0.60510  0.37417  0.03994  1.0000
  C   C100      1.0  0.56015  0.23105  0.01820  1.0000
  C   C101      1.0  0.65877  0.39115  0.01753  1.0000
  C   C102      1.0  0.56495  0.20401  0.95322  1.0000
  C   C103      1.0  0.59216  0.20218  0.94062  1.0000
  C   C104      1.0  0.61588  0.22708  0.99021  1.0000
  C   C105      1.0  0.61097  0.25411  0.05627  1.0000
  C   C106      1.0  0.58386  0.25600  0.06782  1.0000
  C   C107      1.0  0.66453  0.36451  0.94252  1.0000
  C   C108      1.0  0.69235  0.36287  0.92444  1.0000
  C   C109      1.0  0.71547  0.38756  0.97950  1.0000
  C   C110      1.0  0.70896  0.41386  0.06056  1.0000
  C   C111      1.0  0.68152  0.41562  0.07614  1.0000
  C   C112      1.0  0.77008  0.40666  0.94675  1.0000
  C   C113      1.0  0.79697  0.40350  0.94584  1.0000
  C   C114      1.0  0.66956  0.24402  0.96836  1.0000
  C   C115      1.0  0.69514  0.23877  0.96786  1.0000
  C   C116      1.0  0.69095  0.20978  0.97096  1.0000
  C   C117      1.0  0.71516  0.20564  0.97878  1.0000
  C   C118      1.0  0.74409  0.23056  0.97987  1.0000
  C   C119      1.0  0.74919  0.25976  0.97512  1.0000
  C   C120      1.0  0.72410  0.26324  0.96953  1.0000
  C   C121      1.0  0.79384  0.37493  0.94986  1.0000
  C   C122      1.0  0.81784  0.37082  0.96019  1.0000
  C   C123      1.0  0.84590  0.39667  0.96417  1.0000
  C   C124      1.0  0.84959  0.42545  0.96095  1.0000
  C   C125      1.0  0.82498  0.42882  0.95094  1.0000
  C   C126      1.0  0.77946  0.28597  0.98001  1.0000
  C   C127      1.0  0.81328  0.34056  0.97266  1.0000
  C   C128      1.0  0.80365  0.28252  0.99449  1.0000
  C   C129      1.0  0.83196  0.30747  0.99821  1.0000
  C   C130      1.0  0.83690  0.33621  0.98697  1.0000
  C   C131      1.0  0.78487  0.31512  0.97034  1.0000
  C   C132      1.0  0.87827  0.45105  0.97788  1.0000
  C   C133      1.0  0.58588  0.83351  0.91151  1.0000
  C   C134      1.0  0.63534  0.73158  0.07314  1.0000
  C   C135      1.0  0.61340  0.83251  0.90567  1.0000
  C   C136      1.0  0.64041  0.85882  0.90954  1.0000
  C   C137      1.0  0.64098  0.88708  0.92139  1.0000
  C   C138      1.0  0.61395  0.88802  0.92169  1.0000
  C   C139      1.0  0.58705  0.86175  0.91670  1.0000
  C   C140      1.0  0.65974  0.73063  0.09889  1.0000
  C   C141      1.0  0.68571  0.75699  0.11371  1.0000
  C   C142      1.0  0.68858  0.78509  0.10052  1.0000
  C   C143      1.0  0.66368  0.78594  0.07849  1.0000
  C   C144      1.0  0.63734  0.75966  0.06758  1.0000
  C   C145      1.0  0.66779  0.93814  0.99158  1.0000
  C   C146      1.0  0.72422  0.83644  0.07728  1.0000
  C   C147      1.0  0.75440  0.86196  0.07881  1.0000
  C   C148      1.0  0.69593  0.96392  0.01401  1.0000
  C   C149      1.0  0.72237  0.95988  0.00009  1.0000
  C   C150      1.0  0.74958  0.98403  0.02124  1.0000
  C   C151      1.0  0.74971  0.01276  0.05891  1.0000
  C   C152      1.0  0.72417  0.01741  0.06736  1.0000
  C   C153      1.0  0.69699  0.99274  0.04638  1.0000
  C   C154      1.0  0.77871  0.85771  0.08597  1.0000
  C   C155      1.0  0.80881  0.88209  0.07252  1.0000
  C   C156      1.0  0.81447  0.91099  0.05313  1.0000
  C   C157      1.0  0.79094  0.91574  0.04177  1.0000
  C   C158      1.0  0.76075  0.89078  0.05573  1.0000
  C   C159      1.0  0.77814  0.97924  0.99283  1.0000
  C   C160      1.0  0.79843  0.94562  0.00220  1.0000
  C   C161      1.0  0.83260  0.96799  0.91759  1.0000
  C   C162      1.0  0.83937  0.99543  0.87211  1.0000
  C   C163      1.0  0.81252  0.00116  0.90848  1.0000
  C   C164      1.0  0.77166  0.95190  0.04009  1.0000
  C   C165      1.0  0.83484  0.87676  0.06624  1.0000
  C   C166      1.0  0.99813  0.90539  0.97431  1.0000
  C   C167      1.0  0.70975  0.17541  0.98867  1.0000
  C   C168      1.0  0.72125  0.14121  0.04475  1.0000
  C   C169      1.0  0.69004  0.11588  0.07916  1.0000
  C   C170      1.0  0.68682  0.08766  0.08466  1.0000
  C   C171      1.0  0.71398  0.08350  0.06177  1.0000
  C   C172      1.0  0.74471  0.10897  0.03421  1.0000
  C   C173      1.0  0.74810  0.13715  0.02658  1.0000
  C   C174      1.0  0.72763  0.04801  0.08725  1.0000
  N   N1        1.0  0.30128  0.73420  0.06142  1.0000
  N   N2        1.0  0.41185  0.71767  0.94154  1.0000
  N   N3        1.0  0.56637  0.56565  0.96047  1.0000
  N   N4        1.0  0.54634  0.44959  0.00445  1.0000
  N   N5        1.0  0.99546  0.57881  0.01961  1.0000
  N   N6        1.0  0.05135  0.72097  0.99127  1.0000
  N   N7        1.0  0.06892  0.83597  0.94685  1.0000
  N   N8        1.0  0.22574  0.89947  0.01845  1.0000
  N   N9        1.0  0.20844  0.78437  0.06175  1.0000
  N   N10       1.0  0.27382  0.04110  0.04947  1.0000
  N   N11       1.0  0.38755  0.14176  0.07201  1.0000
  N   N12       1.0  0.53407  0.23519  0.03012  1.0000
  N   N13       1.0  0.63311  0.39596  0.03015  1.0000
  N   N14       1.0  0.64166  0.22223  0.97633  1.0000
  N   N15       1.0  0.74253  0.38382  0.95836  1.0000
  N   N16       1.0  0.55713  0.80890  0.90824  1.0000
  N   N17       1.0  0.60835  0.70667  0.05496  1.0000
  N   N18       1.0  0.66866  0.91197  0.93465  1.0000
  N   N19       1.0  0.71629  0.80997  0.11314  1.0000
  N   N20       1.0  0.86320  0.89840  0.05269  1.0000
  N   N21       1.0  0.97137  0.88292  0.97269  1.0000
  N   N22       1.0  0.88288  0.47833  0.98349  1.0000
  N   N23       1.0  0.72787  0.17047  0.02920  1.0000
  N   N24       1.0  0.70834  0.05399  0.06295  1.0000
  H   H113      1.0  0.28921  0.69043  0.55662  1.0000
  H   H114      1.0  0.46759  0.76631  0.39213  1.0000
  H   H115      1.0  0.45895  0.69193  0.44084  1.0000
  H   H116      1.0  0.55538  0.72946  0.43810  1.0000
  H   H117      1.0  0.52189  0.78630  0.38290  1.0000
  H   H118      1.0  0.58800  0.78078  0.43054  1.0000
  H   H119      1.0  0.44344  0.65844  0.60094  1.0000
  H   H120      1.0  0.43128  0.61010  0.68454  1.0000
  H   H121      1.0  0.47884  0.60038  0.62674  1.0000
  H   H122      1.0  0.55250  0.68719  0.37791  1.0000
  H   H123      1.0  0.52678  0.59041  0.40988  1.0000
  H   H124      1.0  0.61934  0.62504  0.43819  1.0000
  H   H125      1.0  0.57647  0.68503  0.51930  1.0000
  H   H126      1.0  0.65090  0.67873  0.46360  1.0000
  H   H127      1.0  0.54869  0.55655  0.37131  1.0000
  H   H128      1.0  0.60807  0.46564  0.54437  1.0000
  H   H129      1.0  0.00319  0.61572  0.51408  1.0000
  H   H130      1.0  0.07113  0.60716  0.51876  1.0000
  H   H131      1.0  0.13270  0.70244  0.50815  1.0000
  H   H132      1.0  0.03789  0.66827  0.50759  1.0000
  H   H133      1.0  0.11260  0.73680  0.52961  1.0000
  H   H134      1.0  0.11398  0.60127  0.42463  1.0000
  H   H135      1.0  0.15983  0.59385  0.40261  1.0000
  H   H136      1.0  0.20648  0.63632  0.45281  1.0000
  H   H137      1.0  0.15750  0.69412  0.58604  1.0000
  H   H138      1.0  0.23754  0.67062  0.55185  1.0000
  H   H139      1.0  0.29035  0.76580  0.58682  1.0000
  H   H140      1.0  0.19935  0.72810  0.53981  1.0000
  H   H141      1.0  0.13115  0.77793  0.41993  1.0000
  H   H142      1.0  0.13455  0.82754  0.41800  1.0000
  H   H143      1.0  0.03524  0.78605  0.45407  1.0000
  H   H144      1.0  0.03095  0.73651  0.46686  1.0000
  H   H145      1.0  0.05128  0.82779  0.37253  1.0000
  H   H146      1.0  0.11957  0.89660  0.44697  1.0000
  H   H147      1.0  0.07707  0.95513  0.49440  1.0000
  H   H148      1.0  0.02869  0.86066  0.40030  1.0000
  H   H149      1.0  0.15359  0.93049  0.49106  1.0000
  H   H150      1.0  0.20912  0.02551  0.52707  1.0000
  H   H151      1.0  0.16456  0.03277  0.53505  1.0000
  H   H152      1.0  0.11568  0.99002  0.51051  1.0000
  H   H153      1.0  0.18569  0.92315  0.49161  1.0000
  H   H154      1.0  0.27906  0.95649  0.50447  1.0000
  H   H155      1.0  0.24540  0.01848  0.50852  1.0000
  H   H156      1.0  0.20305  0.88877  0.48119  1.0000
  H   H157      1.0  0.31173  0.00916  0.52483  1.0000
  H   H158      1.0  0.18711  0.84623  0.55954  1.0000
  H   H159      1.0  0.18305  0.79626  0.56102  1.0000
  H   H160      1.0  0.28644  0.83602  0.46731  1.0000
  H   H161      1.0  0.28989  0.88624  0.47474  1.0000
  H   H162      1.0  0.26618  0.79802  0.60869  1.0000
  H   H163      1.0  0.40387  0.17684  0.49315  1.0000
  H   H164      1.0  0.47047  0.17212  0.54342  1.0000
  H   H165      1.0  0.52835  0.26694  0.52794  1.0000
  H   H166      1.0  0.43292  0.22807  0.51764  1.0000
  H   H167      1.0  0.52400  0.19367  0.54800  1.0000
  H   H168      1.0  0.53049  0.30491  0.54252  1.0000
  H   H169      1.0  0.49833  0.36258  0.48153  1.0000
  H   H170      1.0  0.44938  0.31855  0.46559  1.0000
  H   H171      1.0  0.44054  0.26788  0.48393  1.0000
  H   H172      1.0  0.57139  0.33729  0.52438  1.0000
  H   H173      1.0  0.62856  0.43184  0.53772  1.0000
  H   H174      1.0  0.53538  0.39709  0.51627  1.0000
  H   H175      1.0  0.62220  0.35501  0.53159  1.0000
  H   H176      1.0  0.67190  0.35050  0.36800  1.0000
  H   H177      1.0  0.72007  0.34637  0.34647  1.0000
  H   H178      1.0  0.74730  0.43550  0.61302  1.0000
  H   H179      1.0  0.69854  0.43932  0.63971  1.0000
  H   H180      1.0  0.79678  0.43202  0.43334  1.0000
  H   H181      1.0  0.69979  0.27154  0.44181  1.0000
  H   H182      1.0  0.68982  0.19486  0.46854  1.0000
  H   H183      1.0  0.78436  0.22836  0.47325  1.0000
  H   H184      1.0  0.75020  0.28906  0.45684  1.0000
  H   H185      1.0  0.79187  0.35861  0.45976  1.0000
  H   H186      1.0  0.89114  0.39741  0.42727  1.0000
  H   H187      1.0  0.85036  0.45347  0.43550  1.0000
  H   H188      1.0  0.82289  0.26326  0.49970  1.0000
  H   H189      1.0  0.87316  0.30717  0.50122  1.0000
  H   H190      1.0  0.88225  0.35784  0.47943  1.0000
  H   H191      1.0  0.79041  0.32081  0.44066  1.0000
  H   H192      1.0  0.92406  0.44862  0.40902  1.0000
  H   H193      1.0  0.66338  0.94470  0.55936  1.0000
  H   H194      1.0  0.73207  0.84459  0.53268  1.0000
  H   H195      1.0  0.74055  0.93919  0.47029  1.0000
  H   H196      1.0  0.79420  0.03424  0.54032  1.0000
  H   H197      1.0  0.69711  0.99933  0.56143  1.0000
  H   H198      1.0  0.79734  0.83923  0.59264  1.0000
  H   H199      1.0  0.86109  0.93335  0.52171  1.0000
  H   H200      1.0  0.76491  0.89564  0.52303  1.0000
  H   H201      1.0  0.87735  0.96342  0.31754  1.0000
  H   H202      1.0  0.88962  0.01109  0.22124  1.0000
  H   H203      1.0  0.84103  0.02164  0.30141  1.0000
  H   H204      1.0  0.76691  0.93914  0.60953  1.0000
  H   H205      1.0  0.85357  0.85890  0.55730  1.0000
  H   H206      1.0  0.88488  0.85401  0.61360  1.0000
  H   H207      1.0  0.93556  0.85061  0.56378  1.0000
  H   H208      1.0  0.99904  0.94169  0.38463  1.0000
  H   H209      1.0  0.94820  0.94500  0.43136  1.0000
  H   H210      1.0  0.02558  0.93634  0.49372  1.0000
  H   H211      1.0  0.95550  0.48242  0.51280  1.0000
  H   H212      1.0  0.00402  0.52886  0.52158  1.0000
  H   H213      1.0  0.96713  0.58098  0.44718  1.0000
  H   H214      1.0  0.91869  0.53456  0.43774  1.0000
  H   H215      1.0  0.70672  0.16094  0.48261  1.0000
  H   H216      1.0  0.77020  0.06788  0.59889  1.0000
  C   C175      1.0  0.29352  0.71375  0.56111  1.0000
  C   C176      1.0  0.46121  0.74333  0.41276  1.0000
  C   C177      1.0  0.48766  0.73911  0.40983  1.0000
  C   C178      1.0  0.48250  0.71052  0.43114  1.0000
  C   C179      1.0  0.50639  0.70633  0.44230  1.0000
  C   C180      1.0  0.53645  0.73163  0.42655  1.0000
  C   C181      1.0  0.54206  0.76025  0.40482  1.0000
  C   C182      1.0  0.51748  0.76390  0.39656  1.0000
  C   C183      1.0  0.57203  0.78597  0.40711  1.0000
  C   C184      1.0  0.49907  0.67664  0.48368  1.0000
  C   C185      1.0  0.46490  0.65422  0.56765  1.0000
  C   C186      1.0  0.45801  0.62690  0.61513  1.0000
  C   C187      1.0  0.48480  0.62125  0.58049  1.0000
  C   C188      1.0  0.51919  0.64320  0.49692  1.0000
  C   C189      1.0  0.52574  0.67053  0.44887  1.0000
  C   C190      1.0  0.54762  0.63830  0.46923  1.0000
  C   C191      1.0  0.54719  0.60944  0.43233  1.0000
  C   C192      1.0  0.57261  0.60457  0.42342  1.0000
  C   C193      1.0  0.59991  0.62913  0.44399  1.0000
  C   C194      1.0  0.60127  0.65806  0.47593  1.0000
  C   C195      1.0  0.57501  0.66233  0.48935  1.0000
  C   C196      1.0  0.62948  0.68356  0.49880  1.0000
  C   C197      1.0  0.56899  0.57392  0.40422  1.0000
  C   C198      1.0  0.58738  0.44752  0.51722  1.0000
  C   C199      1.0  0.58210  0.41728  0.52535  1.0000
  C   C200      1.0  0.05031  0.90840  0.44858  1.0000
  C   C201      1.0  0.02158  0.60970  0.50785  1.0000
  C   C202      1.0  0.05161  0.63491  0.51353  1.0000
  C   C203      1.0  0.07629  0.63020  0.51518  1.0000
  C   C204      1.0  0.10573  0.65404  0.51492  1.0000
  C   C205      1.0  0.10970  0.68323  0.51474  1.0000
  C   C206      1.0  0.08552  0.68840  0.51235  1.0000
  C   C207      1.0  0.05626  0.66402  0.51218  1.0000
  C   C208      1.0  0.09183  0.71896  0.50207  1.0000
  C   C209      1.0  0.13257  0.64870  0.50486  1.0000
  C   C210      1.0  0.13337  0.62017  0.45591  1.0000
  C   C211      1.0  0.15963  0.61606  0.44049  1.0000
  C   C212      1.0  0.18594  0.64009  0.46998  1.0000
  C   C213      1.0  0.18585  0.66888  0.52073  1.0000
  C   C214      1.0  0.15865  0.67230  0.53986  1.0000
  C   C215      1.0  0.21386  0.69530  0.54631  1.0000
  C   C216      1.0  0.23911  0.69262  0.55483  1.0000
  C   C217      1.0  0.26676  0.71780  0.56690  1.0000
  C   C218      1.0  0.26885  0.74647  0.57690  1.0000
  C   C219      1.0  0.24404  0.74967  0.56952  1.0000
  C   C220      1.0  0.21706  0.72419  0.55257  1.0000
  C   C221      1.0  0.07983  0.75348  0.45083  1.0000
  C   C222      1.0  0.10958  0.77946  0.43308  1.0000
  C   C223      1.0  0.11187  0.80740  0.42936  1.0000
  C   C224      1.0  0.08558  0.81068  0.43570  1.0000
  C   C225      1.0  0.05623  0.78458  0.44806  1.0000
  C   C226      1.0  0.05357  0.75669  0.45576  1.0000
  C   C227      1.0  0.07154  0.84547  0.40443  1.0000
  C   C228      1.0  0.07457  0.87583  0.41990  1.0000
  C   C229      1.0  0.10098  0.90096  0.44608  1.0000
  C   C230      1.0  0.10280  0.93001  0.47306  1.0000
  C   C231      1.0  0.07695  0.93312  0.47332  1.0000
  C   C232      1.0  0.04948  0.87966  0.41921  1.0000
  C   C233      1.0  0.13084  0.95651  0.49872  1.0000
  C   C234      1.0  0.15612  0.95299  0.50029  1.0000
  C   C235      1.0  0.18466  0.97702  0.50956  1.0000
  C   C236      1.0  0.18730  0.00607  0.52216  1.0000
  C   C237      1.0  0.16207  0.01018  0.52605  1.0000
  C   C238      1.0  0.13416  0.98587  0.51392  1.0000
  C   C239      1.0  0.21136  0.97167  0.50144  1.0000
  C   C240      1.0  0.20780  0.94242  0.49478  1.0000
  C   C241      1.0  0.23184  0.93684  0.49549  1.0000
  C   C242      1.0  0.26080  0.96101  0.50071  1.0000
  C   C243      1.0  0.26531  0.99026  0.50426  1.0000
  C   C244      1.0  0.24067  0.99530  0.50430  1.0000
  C   C245      1.0  0.22544  0.90589  0.49620  1.0000
  C   C246      1.0  0.29495  0.01537  0.51553  1.0000
  C   C247      1.0  0.23915  0.87006  0.51807  1.0000
  C   C248      1.0  0.20889  0.84430  0.54076  1.0000
  C   C249      1.0  0.20640  0.81617  0.54178  1.0000
  C   C250      1.0  0.23370  0.81254  0.52135  1.0000
  C   C251      1.0  0.26437  0.83818  0.49181  1.0000
  C   C252      1.0  0.26663  0.86628  0.49377  1.0000
  C   C253      1.0  0.24707  0.77942  0.57101  1.0000
  C   C254      1.0  0.41938  0.17179  0.52197  1.0000
  C   C255      1.0  0.44872  0.19764  0.53105  1.0000
  C   C256      1.0  0.47370  0.19447  0.53857  1.0000
  C   C257      1.0  0.50217  0.21980  0.53825  1.0000
  C   C258      1.0  0.50539  0.24824  0.53108  1.0000
  C   C259      1.0  0.48086  0.25223  0.52546  1.0000
  C   C260      1.0  0.45248  0.22635  0.52540  1.0000
  C   C261      1.0  0.52900  0.21665  0.53805  1.0000
  C   C262      1.0  0.48518  0.28247  0.51458  1.0000
  C   C263      1.0  0.51291  0.30793  0.52377  1.0000
  C   C264      1.0  0.51854  0.33709  0.51324  1.0000
  C   C265      1.0  0.49500  0.34053  0.49256  1.0000
  C   C266      1.0  0.46719  0.31558  0.48331  1.0000
  C   C267      1.0  0.46217  0.28681  0.49442  1.0000
  C   C268      1.0  0.54853  0.36317  0.52188  1.0000
  C   C269      1.0  0.57368  0.35954  0.52611  1.0000
  C   C270      1.0  0.60231  0.38395  0.53202  1.0000
  C   C271      1.0  0.60622  0.41301  0.53335  1.0000
  C   C272      1.0  0.55340  0.39243  0.52119  1.0000
  C   C273      1.0  0.62794  0.37860  0.53054  1.0000
  C   C274      1.0  0.68143  0.39528  0.50994  1.0000
  C   C275      1.0  0.68778  0.36888  0.42661  1.0000
  C   C276      1.0  0.71507  0.36665  0.41074  1.0000
  C   C277      1.0  0.73756  0.39070  0.47307  1.0000
  C   C278      1.0  0.73130  0.41707  0.55561  1.0000
  C   C279      1.0  0.70391  0.41924  0.57268  1.0000
  C   C280      1.0  0.79162  0.40903  0.44476  1.0000
  C   C281      1.0  0.81865  0.40573  0.44167  1.0000
  C   C282      1.0  0.69260  0.24817  0.45911  1.0000
  C   C283      1.0  0.71786  0.24260  0.46000  1.0000
  C   C284      1.0  0.71286  0.21345  0.46587  1.0000
  C   C285      1.0  0.73710  0.20871  0.46959  1.0000
  C   C286      1.0  0.76648  0.23329  0.46874  1.0000
  C   C287      1.0  0.77194  0.26268  0.46560  1.0000
  C   C288      1.0  0.74722  0.26675  0.45973  1.0000
  C   C289      1.0  0.81549  0.37726  0.44842  1.0000
  C   C290      1.0  0.84102  0.37336  0.44458  1.0000
  C   C291      1.0  0.87043  0.39923  0.43218  1.0000
  C   C292      1.0  0.87362  0.42791  0.43168  1.0000
  C   C293      1.0  0.84750  0.43109  0.43657  1.0000
  C   C294      1.0  0.80246  0.28864  0.46941  1.0000
  C   C295      1.0  0.83676  0.34323  0.45748  1.0000
  C   C296      1.0  0.82655  0.28526  0.48504  1.0000
  C   C297      1.0  0.85508  0.31014  0.48605  1.0000
  C   C298      1.0  0.86024  0.33888  0.47301  1.0000
  C   C299      1.0  0.80839  0.31776  0.45534  1.0000
  C   C300      1.0  0.90371  0.45381  0.43197  1.0000
  C   C301      1.0  0.68646  0.94075  0.50579  1.0000
  C   C302      1.0  0.74723  0.83944  0.56415  1.0000
  C   C303      1.0  0.77744  0.86499  0.56523  1.0000
  C   C304      1.0  0.71550  0.96636  0.51924  1.0000
  C   C305      1.0  0.74254  0.96199  0.49570  1.0000
  C   C306      1.0  0.77130  0.98612  0.50094  1.0000
  C   C307      1.0  0.77237  0.01508  0.53235  1.0000
  C   C308      1.0  0.74596  0.01988  0.55243  1.0000
  C   C309      1.0  0.71726  0.99526  0.54723  1.0000
  C   C310      1.0  0.80199  0.86152  0.57554  1.0000
  C   C311      1.0  0.83193  0.88634  0.56112  1.0000
  C   C312      1.0  0.83731  0.91469  0.53504  1.0000
  C   C313      1.0  0.81354  0.91869  0.52190  1.0000
  C   C314      1.0  0.78335  0.89354  0.53986  1.0000
  C   C315      1.0  0.80043  0.98099  0.46188  1.0000
  C   C316      1.0  0.82109  0.94784  0.47264  1.0000
  C   C317      1.0  0.85580  0.96870  0.36421  1.0000
  C   C318      1.0  0.86266  0.99539  0.30823  1.0000
  C   C319      1.0  0.83533  0.00155  0.35539  1.0000
  C   C320      1.0  0.79395  0.95461  0.52130  1.0000
  C   C321      1.0  0.85873  0.88226  0.55532  1.0000
  C   C322      1.0  0.91320  0.89997  0.52287  1.0000
  C   C323      1.0  0.90985  0.87320  0.56061  1.0000
  C   C324      1.0  0.93806  0.87109  0.53342  1.0000
  C   C325      1.0  0.97055  0.89569  0.47341  1.0000
  C   C326      1.0  0.97400  0.92255  0.43628  1.0000
  C   C327      1.0  0.94579  0.92455  0.46180  1.0000
  C   C328      1.0  0.02302  0.91302  0.46428  1.0000
  C   C329      1.0  0.93393  0.50528  0.46984  1.0000
  C   C330      1.0  0.95825  0.50380  0.49400  1.0000
  C   C331      1.0  0.98530  0.52968  0.50100  1.0000
  C   C332      1.0  0.98909  0.55807  0.48628  1.0000
  C   C333      1.0  0.96463  0.55958  0.46372  1.0000
  C   C334      1.0  0.93757  0.53368  0.45656  1.0000
  C   C335      1.0  0.73060  0.17817  0.48112  1.0000
  C   C336      1.0  0.74958  0.05037  0.56891  1.0000
  N   N25       1.0  0.32082  0.73615  0.55670  1.0000
  N   N26       1.0  0.43233  0.72143  0.43831  1.0000
  N   N27       1.0  0.58810  0.56806  0.43099  1.0000
  N   N28       1.0  0.56898  0.45241  0.47872  1.0000
  N   N29       1.0  0.01754  0.58240  0.49508  1.0000
  N   N30       1.0  0.07374  0.72421  0.46274  1.0000
  N   N31       1.0  0.09082  0.84005  0.43253  1.0000
  N   N32       1.0  0.24519  0.89955  0.51387  1.0000
  N   N33       1.0  0.22848  0.78348  0.52957  1.0000
  N   N34       1.0  0.30024  0.04274  0.51753  1.0000
  N   N35       1.0  0.41281  0.14488  0.54184  1.0000
  N   N36       1.0  0.55664  0.23941  0.52625  1.0000
  N   N37       1.0  0.65546  0.40033  0.52770  1.0000
  N   N38       1.0  0.66402  0.22660  0.47518  1.0000
  N   N39       1.0  0.76390  0.38640  0.45715  1.0000
  N   N40       1.0  0.57838  0.81283  0.38773  1.0000
  N   N41       1.0  0.62902  0.70998  0.55391  1.0000
  N   N42       1.0  0.68824  0.91501  0.43548  1.0000
  N   N43       1.0  0.73995  0.81266  0.59051  1.0000
  N   N44       1.0  0.88693  0.90453  0.53997  1.0000
  N   N45       1.0  0.99691  0.89098  0.45314  1.0000
  N   N46       1.0  0.90572  0.48076  0.46016  1.0000
  N   N47       1.0  0.75121  0.17229  0.49338  1.0000
  N   N48       1.0  0.73042  0.05609  0.54218  1.0000
  C   C337      1.0  0.70592  0.75137  0.57847  1.0000
  C   C338      1.0  0.71226  0.78093  0.57414  1.0000
  C  Sn1       1.0  0.68847  0.78730  0.57724  1.0000
  C  Sn2       1.0  0.65777  0.76361  0.58489  1.0000
  C   C339      1.0  0.65166  0.73412  0.58933  1.0000
  C   C340      1.0  0.67565  0.72799  0.58610  1.0000
  H   H217      1.0  0.72447  0.74663  0.57609  1.0000
  O  Te1       1.0  0.69521  0.81695  0.57276  1.0000
  O  Te2       1.0  0.63355  0.76935  0.58821  1.0000
  H   H218      1.0  0.67073  0.70511  0.58959  1.0000
  Mg  Mg1       1.0  0.65436  0.81344  0.57976  1.0000
  C   C341      1.0  0.94611  0.91884  0.94201  1.0000
  C   C342      1.0  0.94646  0.89545  0.99223  1.0000
  C  Sn3       1.0  0.00488  0.86243  0.06497  1.0000
  C  Sn4       1.0  0.97396  0.85947  0.08764  1.0000
  C   C343      1.0  0.97388  0.88299  0.03684  1.0000
  C   C344      1.0  0.91563  0.91593  0.96425  1.0000
  H   H219      1.0  0.96948  0.93919  0.88574  1.0000
  O  Te3       1.0  0.00568  0.83929  0.11450  1.0000
  O  Te4       1.0  0.94358  0.83333  0.15994  1.0000
  H   H220      1.0  0.91536  0.93403  0.92525  1.0000
  Mg  Mg2       1.0  0.95766  0.80805  0.20713  1.0000
  C   C345      1.0  0.37794  0.75795  0.60049  1.0000
  C   C346      1.0  0.35483  0.73852  0.53187  1.0000
  C  Sn5       1.0  0.35674  0.71121  0.43122  1.0000
  C  Sn6       1.0  0.38227  0.70325  0.39894  1.0000
  C   C347      1.0  0.40526  0.72283  0.46830  1.0000
  C   C348      1.0  0.40313  0.75012  0.56878  1.0000
  H   H221      1.0  0.37629  0.77906  0.67834  1.0000
  O  Te5       1.0  0.33346  0.69206  0.36359  1.0000
  O  Te6       1.0  0.38475  0.67608  0.29884  1.0000
  H   H222      1.0  0.42101  0.76515  0.62201  1.0000
  Mg  Mg3       1.0  0.34717  0.65752  0.23499  1.0000
  C   C349      1.0  0.03173  0.77218  0.94524  1.0000
  C   C350      1.0  0.05542  0.80073  0.96110  1.0000
  C  Sn7       1.0  0.08305  0.80415  0.97299  1.0000
  C  Sn8       1.0  0.08699  0.77848  0.96884  1.0000
  C   C351      1.0  0.06317  0.75002  0.95279  1.0000
  C   C352      1.0  0.03561  0.74685  0.94105  1.0000
  H   H223      1.0  0.01042  0.76973  0.93605  1.0000
  O  Te7       1.0  0.10647  0.83283  0.98885  1.0000
  O  Te8       1.0  0.11438  0.78126  0.98040  1.0000
  H   H224      1.0  0.01729  0.72475  0.92864  1.0000
  Mg  Mg4       1.0  0.22800  0.81846  0.00041  1.0000
  C   C353      1.0  0.62932  0.88816  0.38471  1.0000
  C   C354      1.0  0.65404  0.89187  0.42503  1.0000
  C  Sn9       1.0  0.65587  0.86697  0.44577  1.0000
  C  Sn10      1.0  0.63248  0.83784  0.42563  1.0000
  C   C355      1.0  0.60786  0.83436  0.38516  1.0000
  C   C356      1.0  0.60625  0.85943  0.36476  1.0000
  H   H225      1.0  0.62808  0.90755  0.36882  1.0000
  O  Te9       1.0  0.68072  0.87108  0.48611  1.0000
  O  Te10      1.0  0.63375  0.81256  0.44557  1.0000
  H   H226      1.0  0.58711  0.85654  0.33341  1.0000
  Mg  Mg5       1.0  0.67221  0.82969  0.50045  1.0000
  C   C357      1.0  0.70727  0.09367  0.53292  1.0000
  C   C358      1.0  0.73011  0.08595  0.53009  1.0000
  C  Sn11      1.0  0.76053  0.10815  0.52630  1.0000
  C  Sn12      1.0  0.76815  0.13864  0.52539  1.0000
  C   C359      1.0  0.74512  0.14613  0.52838  1.0000
  C   C360      1.0  0.71476  0.12373  0.53210  1.0000
  H   H227      1.0  0.68377  0.07635  0.53591  1.0000
  O  Te11      1.0  0.78307  0.10005  0.52343  1.0000
  O  Te12      1.0  0.79836  0.16128  0.52170  1.0000
  H   H228      1.0  0.69707  0.12972  0.53443  1.0000
  Mg  Mg6       1.0  0.82097  0.13900  0.51875  1.0000
  C   C361      1.0  0.54482  0.48964  0.47493  1.0000
  C   C362      1.0  0.56924  0.48184  0.45298  1.0000
  C  Sn13      1.0  0.60122  0.50393  0.42876  1.0000
  C  Sn14      1.0  0.60881  0.53436  0.42660  1.0000
  C   C363      1.0  0.58418  0.54193  0.44882  1.0000
  C   C364      1.0  0.55227  0.51965  0.47290  1.0000
  H   H229      1.0  0.52012  0.47240  0.49367  1.0000
  O  Te13      1.0  0.62534  0.49575  0.40695  1.0000
  O  Te14      1.0  0.64056  0.55689  0.40271  1.0000
  H   H230      1.0  0.53335  0.52569  0.49002  1.0000
  Mg  Mg7       1.0  0.66499  0.53455  0.37857  1.0000
  C   C365      1.0  0.34812  0.11801  0.54723  1.0000
  C   C366      1.0  0.37649  0.12151  0.55189  1.0000
  C  Sn15      1.0  0.38224  0.09655  0.53240  1.0000
  C  Sn16      1.0  0.35913  0.06756  0.50775  1.0000
  C   C367      1.0  0.33083  0.06430  0.50314  1.0000
  C   C368      1.0  0.32532  0.08943  0.52284  1.0000
  H   H231      1.0  0.34386  0.13745  0.56236  1.0000
  O  Te15      1.0  0.41071  0.10045  0.53745  1.0000
  O  Te16      1.0  0.36427  0.04223  0.48785  1.0000
  H   H232      1.0  0.30336  0.08671  0.51910  1.0000
  Mg  Mg8       1.0  0.40675  0.05905  0.50419  1.0000
  C   C369      1.0  0.35485  0.69663  0.89711  1.0000
  C   C370      1.0  0.38037  0.71711  0.94575  1.0000
  C  Sn17      1.0  0.46670  0.73751  0.05216  1.0000
  C  Sn18      1.0  0.43847  0.74408  0.11079  1.0000
  C   C371      1.0  0.41306  0.72343  0.06153  1.0000
  C   C372      1.0  0.32700  0.70309  0.95495  1.0000
  H   H233      1.0  0.35668  0.67576  0.81475  1.0000
  O  Te17      1.0  0.49242  0.75773  0.09946  1.0000
  O  Te18      1.0  0.43571  0.77091  0.21731  1.0000
  H   H234      1.0  0.30723  0.68722  0.91743  1.0000
  Mg  Mg9       1.0  0.47724  0.79130  0.24655  1.0000
  C   C373      1.0  0.91410  0.53927  0.04463  1.0000
  C   C374      1.0  0.82313  0.51643  0.99415  1.0000
  C  Sn19      1.0  0.84869  0.50926  0.96306  1.0000
  C  Sn20      1.0  0.87728  0.53206  0.98303  1.0000
  C   C375      1.0  0.96801  0.55484  0.03372  1.0000
  C   C376      1.0  0.94229  0.56176  0.06443  1.0000
  H   H235      1.0  0.89419  0.54463  0.06851  1.0000
  O  Te19      1.0  0.84577  0.47971  0.91264  1.0000
  O  Te20      1.0  0.90319  0.52551  0.95286  1.0000
  H   H236      1.0  0.94424  0.58457  0.10364  1.0000
  Mg  Mg10      1.0  0.88767  0.48192  0.88649  1.0000
  C   C377      1.0  0.32596  0.11601  0.04516  1.0000
  C   C378      1.0  0.35139  0.11910  0.07703  1.0000
  C  Sn21      1.0  0.35325  0.09383  0.09216  1.0000
  C  Sn22      1.0  0.32917  0.06495  0.07494  1.0000
  C   C379      1.0  0.30385  0.06209  0.04291  1.0000
  C   C380      1.0  0.30221  0.08753  0.02807  1.0000
  H   H237      1.0  0.32471  0.13569  0.03356  1.0000
  O  Te21      1.0  0.37881  0.09733  0.12410  1.0000
  O  Te22      1.0  0.33045  0.03932  0.08940  1.0000
  H   H238      1.0  0.28254  0.08513  0.00326  1.0000
  Mg  Mg11      1.0  0.37001  0.05563  0.13341  1.0000
  C   C381      1.0  0.59354  0.20416  0.42688  1.0000
  C   C382      1.0  0.58312  0.22798  0.49785  1.0000
  C  Sn23      1.0  0.60207  0.25529  0.56106  1.0000
  C  Sn24      1.0  0.63200  0.25875  0.55284  1.0000
  C   C383      1.0  0.64222  0.23479  0.48145  1.0000
  C   C384      1.0  0.62307  0.20756  0.41864  1.0000
  H   H239      1.0  0.57873  0.18310  0.37817  1.0000
  O  Te23      1.0  0.59129  0.27886  0.63163  1.0000
  O  Te24      1.0  0.65142  0.28580  0.61500  1.0000
  H   H240      1.0  0.63115  0.18913  0.36357  1.0000
  Mg  Mg12      1.0  0.62630  0.31135  0.69947  1.0000
