data_image0
_chemical_formula_structural       C4H2C8NCHC2NC3H3C6H8C4H4C6NC3HC2NCH3CN2C4H2C4H2C2H6C4H2C4NCHC4NC3H3C2H2C6H8C6NCHC4NCH3CN2C4H2C4H2C6H2C2H4C6NCHC2NC3H3C2H2C8H6C4NCHC4NC3H3CN2C4H2C4H2C2H8C4NCHC4NC3H3C8H6C4H4C6NC3HC4NCH3CN2C4H2C4H2N2CuN2CuN2CuN2CuSnCSn2CSnTe4Mg2SnCSn2CSnTe4Mg2SnCSn2CSnTe4Mg2SnCSn2CSnTe4Mg2SnCSn2CSnTe4Mg2SnCSn2CSnTe4Mg2SnCSn2CSnTe4Mg2SnCSn2CSnTe4Mg2SnCSn2CSnTe4Mg2SnCSn2CSnTe4Mg2SnCSn2CSnTe4Mg2SnCSn2CSnTe4Mg2SnCSn2CSnTe4Mg2SnCSn2CSnTe4Mg2SnCSn2CSnTe4Mg2SnCSn2CSnTe4Mg2
_chemical_formula_sum              "C228 H112 N32 Cu4 Sn64 Te64 Mg32"
_cell_length_a       44.3319
_cell_length_b       23.2738
_cell_length_c       21.1911
_cell_angle_alpha    89.2834
_cell_angle_beta     90.096
_cell_angle_gamma    90.2398

_symmetry_space_group_name_H-M    'P1'
_space_group_IT_number       1

loop_
  _space_group_symop_operation_xyz
  'x, y, z'

loop_
  _atom_site_type_symbol
  _atom_site_label
  _atom_site_symmetry_multiplicity
  _atom_site_fract_x
  _atom_site_fract_y
  _atom_site_fract_z
  _atom_site_occupancy
  C   C1        1.0  0.07864  0.65334  0.48222  1.0000
  C   C2        1.0  0.10054  0.61084  0.48273  1.0000
  C   C3        1.0  0.18313  0.46607  0.43404  1.0000
  C   C4        1.0  0.20537  0.42397  0.43348  1.0000
  H   H1        1.0  0.82166  0.48174  0.59134  1.0000
  H   H2        1.0  0.78264  0.40636  0.59004  1.0000
  C   C5        1.0  0.39693  0.34191  0.15024  1.0000
  C   C6        1.0  0.37425  0.34124  0.19545  1.0000
  C   C7        1.0  0.08257  0.96907  0.97448  1.0000
  C   C8        1.0  0.10447  0.92650  0.97384  1.0000
  C   C9        1.0  0.35154  0.37997  0.68251  1.0000
  C   C10       1.0  0.14739  0.43673  0.03251  1.0000
  C   C11       1.0  0.43652  0.61276  0.53890  1.0000
  C   C12       1.0  0.44569  0.61724  0.60209  1.0000
  N   N1        1.0  0.33054  0.65701  0.79040  1.0000
  C   C13       1.0  0.59481  0.59680  0.51820  1.0000
  H   H3        1.0  0.61321  0.58891  0.42217  1.0000
  C   C14       1.0  0.97573  0.27801  0.01851  1.0000
  C   C15       1.0  0.98533  0.33709  0.02349  1.0000
  N   N2        1.0  0.85120  0.47492  0.97738  1.0000
  C   C16       1.0  0.82891  0.51698  0.98295  1.0000
  C   C17       1.0  0.78386  0.60309  0.98675  1.0000
  C   C18       1.0  0.05559  0.26026  0.02599  1.0000
  H   H4        1.0  0.97033  0.37351  0.02594  1.0000
  H   H5        1.0  0.35409  0.41167  0.64385  1.0000
  H   H6        1.0  0.16154  0.43636  0.07526  1.0000
  C   C19       1.0  0.39753  0.66490  0.32477  1.0000
  C   C20       1.0  0.37506  0.66634  0.27895  1.0000
  C   C21       1.0  0.29289  0.70933  0.11438  1.0000
  C   C22       1.0  0.27072  0.70913  0.06772  1.0000
  C   C23       1.0  0.10093  0.99697  0.57692  1.0000
  C   C24       1.0  0.12313  0.03963  0.57767  1.0000
  H   H7        1.0  0.55975  0.54980  0.26767  1.0000
  H   H8        1.0  0.60062  0.55053  0.18733  1.0000
  H   H9        1.0  0.69599  0.55928  0.12994  1.0000
  H   H10       1.0  0.73558  0.56051  0.04860  1.0000
  H   H11       1.0  0.93577  0.03804  0.43744  1.0000
  H   H12       1.0  0.89532  0.11281  0.43876  1.0000
  H   H13       1.0  0.82131  0.20766  0.38683  1.0000
  H   H14       1.0  0.78194  0.28315  0.38685  1.0000
  C   C25       1.0  0.09766  0.31245  0.08123  1.0000
  C   C26       1.0  0.11980  0.35516  0.08232  1.0000
  C   C27       1.0  0.18635  0.53744  0.04622  1.0000
  C   C28       1.0  0.20804  0.58090  0.04381  1.0000
  H   H15       1.0  0.60272  0.30593  0.86483  1.0000
  H   H16       1.0  0.64243  0.30514  0.78145  1.0000
  H   H17       1.0  0.82711  0.52835  0.88224  1.0000
  H   H18       1.0  0.78787  0.60412  0.88537  1.0000
  C   C29       1.0  0.35060  0.38253  0.29242  1.0000
  C   C30       1.0  0.14698  0.87397  0.02683  1.0000
  C   C31       1.0  0.43622  0.61509  0.43464  1.0000
  C   C32       1.0  0.44503  0.62257  0.37143  1.0000
  C   C33       1.0  0.42117  0.62454  0.32213  1.0000
  C   C34       1.0  0.37552  0.62747  0.22850  1.0000
  N   N3        1.0  0.32958  0.66193  0.18016  1.0000
  C   C35       1.0  0.30744  0.65826  0.13297  1.0000
  C   C36       1.0  0.26145  0.65779  0.03944  1.0000
  C   C37       1.0  0.59459  0.59724  0.45372  1.0000
  H   H19       1.0  0.61356  0.58803  0.54963  1.0000
  C   C38       1.0  0.97535  0.03309  0.02432  1.0000
  C   C39       1.0  0.98470  0.97399  0.03155  1.0000
  N   N4        1.0  0.84857  0.83949  0.98322  1.0000
  C   C40       1.0  0.05551  0.05033  0.02685  1.0000
  H   H20       1.0  0.96957  0.93761  0.03667  1.0000
  H   H21       1.0  0.35321  0.41546  0.32890  1.0000
  H   H22       1.0  0.16159  0.87261  0.06892  1.0000
  C   C41       1.0  0.76171  0.65385  0.98802  1.0000
  N   N5        1.0  0.95473  0.15547  0.01939  1.0000
  N   N6        1.0  0.45499  0.61866  0.48667  1.0000
  C   C42       1.0  0.47592  0.62203  0.62119  1.0000
  C   C43       1.0  0.48560  0.63137  0.68534  1.0000
  C   C44       1.0  0.47526  0.62786  0.35245  1.0000
  C   C45       1.0  0.48479  0.64078  0.28876  1.0000
  H   H23       1.0  0.46973  0.65057  0.24988  1.0000
  H   H24       1.0  0.47063  0.63784  0.72491  1.0000
  C   C46       1.0  0.06342  0.79662  0.52641  1.0000
  C   C47       1.0  0.09461  0.81375  0.51987  1.0000
  C   C48       1.0  0.06449  0.89157  0.52440  1.0000
  C   C49       1.0  0.09525  0.87243  0.51839  1.0000
  H   H25       1.0  0.11339  0.78449  0.51560  1.0000
  H   H26       1.0  0.11459  0.90065  0.51312  1.0000
  C   C50       1.0  0.81795  0.54254  0.92699  1.0000
  C   C51       1.0  0.79588  0.58470  0.92914  1.0000
  H   H27       1.0  0.39743  0.30926  0.11394  1.0000
  H   H28       1.0  0.35669  0.30847  0.19513  1.0000
  H   H29       1.0  0.09414  0.28449  0.12212  1.0000
  H   H30       1.0  0.13382  0.36026  0.12417  1.0000
  H   H31       1.0  0.17939  0.52004  0.09183  1.0000
  H   H32       1.0  0.21786  0.59643  0.08751  1.0000
  C   C52       1.0  0.91991  0.03981  0.47647  1.0000
  C   C53       1.0  0.89748  0.08135  0.47691  1.0000
  C   C54       1.0  0.81374  0.22605  0.43095  1.0000
  C   C55       1.0  0.79169  0.26851  0.43135  1.0000
  H   H33       1.0  0.09911  0.96615  0.61578  1.0000
  H   H34       1.0  0.13879  0.04193  0.61724  1.0000
  C   C56       1.0  0.64936  0.61910  0.18304  1.0000
  C   C57       1.0  0.85100  0.56741  0.52739  1.0000
  C   C58       1.0  0.56379  0.38724  0.04210  1.0000
  C   C59       1.0  0.55433  0.38267  0.10517  1.0000
  N   N7        1.0  0.66976  0.34460  0.29322  1.0000
  C   C60       1.0  0.40506  0.39922  0.01776  1.0000
  H   H35       1.0  0.38657  0.40500  0.92146  1.0000
  C   C61       1.0  0.02308  0.72276  0.53074  1.0000
  C   C62       1.0  0.01279  0.66393  0.53574  1.0000
  C   C63       1.0  0.07675  0.69330  0.53150  1.0000
  C   C64       1.0  0.12155  0.60707  0.53256  1.0000
  N   N8        1.0  0.14875  0.52791  0.48805  1.0000
  C   C65       1.0  0.17157  0.48647  0.49134  1.0000
  C   C66       1.0  0.21671  0.40026  0.48990  1.0000
  C   C67       1.0  0.94333  0.74329  0.52377  1.0000
  H   H36       1.0  0.02733  0.62684  0.54024  1.0000
  H   H37       1.0  0.64708  0.58659  0.14601  1.0000
  H   H38       1.0  0.83518  0.56893  0.56729  1.0000
  C   C68       1.0  0.60259  0.33809  0.82711  1.0000
  C   C69       1.0  0.62476  0.33747  0.78088  1.0000
  H   H39       1.0  0.06792  0.97560  0.93379  1.0000
  H   H40       1.0  0.10733  0.89897  0.93317  1.0000
  C   C70       1.0  0.57830  0.58042  0.27102  1.0000
  C   C71       1.0  0.60126  0.58081  0.22612  1.0000
  C   C72       1.0  0.70510  0.60016  0.11313  1.0000
  C   C73       1.0  0.72770  0.60096  0.06752  1.0000
  C   C74       1.0  0.81423  0.46452  0.54639  1.0000
  C   C75       1.0  0.79231  0.42138  0.54562  1.0000
  H   H41       1.0  0.39735  0.69555  0.36311  1.0000
  H   H42       1.0  0.35688  0.69755  0.28056  1.0000
  H   H43       1.0  0.29983  0.74914  0.13660  1.0000
  H   H44       1.0  0.26031  0.74949  0.05349  1.0000
  H   H45       1.0  0.06278  0.65668  0.44312  1.0000
  H   H46       1.0  0.10222  0.58035  0.44444  1.0000
  H   H47       1.0  0.17437  0.48424  0.39020  1.0000
  H   H48       1.0  0.21388  0.40890  0.38855  1.0000
  C   C76       1.0  0.64931  0.61313  0.79229  1.0000
  C   C77       1.0  0.85257  0.12603  0.52813  1.0000
  C   C78       1.0  0.56434  0.38621  0.93784  1.0000
  C   C79       1.0  0.55554  0.37983  0.87465  1.0000
  C   C80       1.0  0.57934  0.37931  0.82536  1.0000
  C   C81       1.0  0.62466  0.37853  0.73143  1.0000
  N   N9        1.0  0.66992  0.34310  0.68343  1.0000
  C   C82       1.0  0.40535  0.39832  0.95334  1.0000
  H   H49       1.0  0.38609  0.40652  0.04870  1.0000
  C   C83       1.0  0.02594  0.96809  0.52871  1.0000
  C   C84       1.0  0.01709  0.02734  0.53544  1.0000
  C   C85       1.0  0.08019  0.99400  0.52680  1.0000
  C   C86       1.0  0.12522  0.08042  0.52827  1.0000
  N   N10       1.0  0.15056  0.16414  0.48641  1.0000
  C   C87       1.0  0.94574  0.95325  0.52453  1.0000
  H   H50       1.0  0.03255  0.06314  0.54041  1.0000
  H   H51       1.0  0.64782  0.57843  0.82801  1.0000
  H   H52       1.0  0.83747  0.12409  0.56930  1.0000
  C   C88       1.0  0.23829  0.34856  0.48975  1.0000
  N   N11       1.0  0.04522  0.84474  0.52808  1.0000
  N   N12       1.0  0.54542  0.38259  0.98960  1.0000
  C   C89       1.0  0.52404  0.37807  0.12357  1.0000
  C   C90       1.0  0.51414  0.36829  0.18767  1.0000
  C   C91       1.0  0.52542  0.37349  0.85532  1.0000
  C   C92       1.0  0.51629  0.36043  0.79173  1.0000
  H   H53       1.0  0.53164  0.35135  0.75354  1.0000
  H   H54       1.0  0.52896  0.36079  0.22758  1.0000
  C   C93       1.0  0.93613  0.20294  0.01568  1.0000
  C   C94       1.0  0.90508  0.18493  0.01032  1.0000
  C   C95       1.0  0.93586  0.10805  0.01761  1.0000
  C   C96       1.0  0.90488  0.12627  0.01137  1.0000
  H   H55       1.0  0.88609  0.21373  0.00562  1.0000
  H   H56       1.0  0.88562  0.09782  0.00756  1.0000
  C   C97       1.0  0.41926  0.42566  0.19834  1.0000
  C   C98       1.0  0.39656  0.42496  0.24385  1.0000
  C   C99       1.0  0.08367  0.34265  0.97541  1.0000
  C   C100      1.0  0.10564  0.38537  0.97648  1.0000
  C   C101      1.0  0.18160  0.54291  0.93270  1.0000
  C   C102      1.0  0.20321  0.58642  0.93075  1.0000
  H   H57       1.0  0.82743  0.52039  0.08487  1.0000
  H   H58       1.0  0.78784  0.59427  0.08787  1.0000
  C   C103      1.0  0.08265  0.03436  0.47685  1.0000
  C   C104      1.0  0.10474  0.07687  0.47753  1.0000
  H   H59       1.0  0.90327  0.96963  0.61400  1.0000
  H   H60       1.0  0.86324  0.04425  0.61561  1.0000
  H   H61       1.0  0.82875  0.21889  0.58847  1.0000
  H   H62       1.0  0.79007  0.29460  0.58860  1.0000
  C   C105      1.0  0.35235  0.62754  0.17942  1.0000
  C   C106      1.0  0.14566  0.56451  0.53289  1.0000
  C   C107      1.0  0.43554  0.38892  0.03868  1.0000
  C   C108      1.0  0.44412  0.38409  0.10230  1.0000
  C   C109      1.0  0.41992  0.38402  0.15086  1.0000
  C   C110      1.0  0.37377  0.38268  0.24333  1.0000
  N   N13       1.0  0.32881  0.34551  0.29372  1.0000
  C   C111      1.0  0.59468  0.39618  0.02277  1.0000
  H   H63       1.0  0.61414  0.40158  0.92724  1.0000
  C   C112      1.0  0.97329  0.72459  0.52793  1.0000
  C   C113      1.0  0.98201  0.66511  0.53381  1.0000
  N   N14       1.0  0.84928  0.52816  0.48494  1.0000
  C   C114      1.0  0.82734  0.48470  0.48971  1.0000
  C   C115      1.0  0.78271  0.39666  0.48883  1.0000
  C   C116      1.0  0.05353  0.73928  0.52976  1.0000
  H   H64       1.0  0.96654  0.62912  0.53650  1.0000
  H   H65       1.0  0.35571  0.59669  0.14112  1.0000
  H   H66       1.0  0.16140  0.56633  0.57310  1.0000
  C   C117      1.0  0.09832  0.99669  0.07925  1.0000
  C   C118      1.0  0.12031  0.95400  0.07872  1.0000
  H   H67       1.0  0.56119  0.45165  0.77371  1.0000
  H   H68       1.0  0.60106  0.45152  0.69143  1.0000
  C   C119      1.0  0.42153  0.58585  0.27165  1.0000
  C   C120      1.0  0.39912  0.58738  0.22550  1.0000
  C   C121      1.0  0.29828  0.60654  0.10452  1.0000
  C   C122      1.0  0.27576  0.60668  0.05868  1.0000
  C   C123      1.0  0.09735  0.68890  0.58179  1.0000
  C   C124      1.0  0.11942  0.64638  0.58226  1.0000
  C   C125      1.0  0.18261  0.46221  0.54808  1.0000
  C   C126      1.0  0.20463  0.41979  0.54699  1.0000
  H   H69       1.0  0.60350  0.68870  0.36395  1.0000
  H   H70       1.0  0.64453  0.68962  0.28291  1.0000
  H   H71       1.0  0.69972  0.74363  0.13820  1.0000
  H   H72       1.0  0.73917  0.74492  0.05545  1.0000
  H   H73       1.0  0.82958  0.47227  0.38975  1.0000
  H   H74       1.0  0.79079  0.39482  0.38852  1.0000
  C   C127      1.0  0.35045  0.61670  0.78810  1.0000
  C   C128      1.0  0.14835  0.12527  0.53024  1.0000
  C   C129      1.0  0.43604  0.38723  0.93446  1.0000
  C   C130      1.0  0.44535  0.37996  0.87174  1.0000
  N   N15       1.0  0.32906  0.34455  0.68506  1.0000
  C   C131      1.0  0.59500  0.39571  0.95831  1.0000
  H   H75       1.0  0.61350  0.40235  0.05457  1.0000
  C   C132      1.0  0.97612  0.96976  0.52833  1.0000
  C   C133      1.0  0.98629  0.02831  0.53543  1.0000
  C   C134      1.0  0.92222  0.99873  0.52565  1.0000
  C   C135      1.0  0.87661  0.08329  0.52690  1.0000
  N   N16       1.0  0.84894  0.16329  0.48309  1.0000
  C   C136      1.0  0.82674  0.20571  0.48754  1.0000
  C   C137      1.0  0.78215  0.29323  0.48803  1.0000
  C   C138      1.0  0.05597  0.94949  0.52650  1.0000
  H   H76       1.0  0.97167  0.06509  0.54037  1.0000
  H   H77       1.0  0.35077  0.58045  0.82200  1.0000
  H   H78       1.0  0.16387  0.12352  0.57087  1.0000
  C   C139      1.0  0.76069  0.34527  0.48811  1.0000
  N   N17       1.0  0.95420  0.84794  0.52422  1.0000
  N   N18       1.0  0.45438  0.38317  0.98720  1.0000
  C   C140      1.0  0.47421  0.37883  0.12221  1.0000
  C   C141      1.0  0.48332  0.36878  0.18679  1.0000
  C   C142      1.0  0.47560  0.37331  0.85383  1.0000
  C   C143      1.0  0.48548  0.36023  0.79079  1.0000
  H   H79       1.0  0.47073  0.35107  0.75142  1.0000
  H   H80       1.0  0.46792  0.36193  0.22576  1.0000
  C   C144      1.0  0.06480  0.20275  0.02728  1.0000
  C   C145      1.0  0.09595  0.18492  0.02698  1.0000
  C   C146      1.0  0.06482  0.10793  0.02709  1.0000
  C   C147      1.0  0.09596  0.12626  0.02664  1.0000
  H   H81       1.0  0.11513  0.21382  0.02609  1.0000
  H   H82       1.0  0.11514  0.09764  0.02554  1.0000
  C   C148      1.0  0.81870  0.45808  0.43317  1.0000
  C   C149      1.0  0.79687  0.41500  0.43282  1.0000
  H   H83       1.0  0.09579  0.71891  0.62060  1.0000
  H   H84       1.0  0.13528  0.64351  0.62148  1.0000
  H   H85       1.0  0.17328  0.47558  0.59302  1.0000
  H   H86       1.0  0.21243  0.40095  0.59128  1.0000
  H   H87       1.0  0.43662  0.45886  0.19893  1.0000
  H   H88       1.0  0.39636  0.45766  0.28016  1.0000
  H   H89       1.0  0.09568  0.02374  0.12035  1.0000
  H   H90       1.0  0.13486  0.94767  0.11968  1.0000
  C   C150      1.0  0.64788  0.37923  0.68260  1.0000
  C   C151      1.0  0.85350  0.43520  0.02022  1.0000
  C   C152      1.0  0.56452  0.60938  0.53839  1.0000
  C   C153      1.0  0.55584  0.61510  0.60168  1.0000
  N   N19       1.0  0.66984  0.65262  0.79421  1.0000
  C   C154      1.0  0.40582  0.60248  0.51915  1.0000
  H   H91       1.0  0.38673  0.59733  0.42326  1.0000
  C   C155      1.0  0.02545  0.27785  0.02277  1.0000
  C   C156      1.0  0.01608  0.33705  0.02594  1.0000
  C   C157      1.0  0.07929  0.30565  0.02777  1.0000
  C   C158      1.0  0.12408  0.39228  0.03013  1.0000
  N   N20       1.0  0.15104  0.47358  0.98703  1.0000
  C   C159      1.0  0.17306  0.51689  0.99035  1.0000
  C   C160      1.0  0.21728  0.60552  0.98611  1.0000
  C   C161      1.0  0.94547  0.26054  0.01643  1.0000
  H   H92       1.0  0.03116  0.37341  0.03086  1.0000
  H   H93       1.0  0.64519  0.41169  0.64475  1.0000
  H   H94       1.0  0.83746  0.43164  0.05971  1.0000
  C   C162      1.0  0.60319  0.65821  0.32546  1.0000
  C   C163      1.0  0.62598  0.65895  0.28059  1.0000
  C   C164      1.0  0.70767  0.70376  0.11797  1.0000
  C   C165      1.0  0.72982  0.70410  0.07155  1.0000
  C   C166      1.0  0.90148  0.00090  0.57563  1.0000
  C   C167      1.0  0.87905  0.04271  0.57638  1.0000
  C   C168      1.0  0.81779  0.23141  0.54444  1.0000
  C   C169      1.0  0.79606  0.27449  0.54427  1.0000
  H   H95       1.0  0.43948  0.55422  0.26950  1.0000
  H   H96       1.0  0.39955  0.55703  0.18679  1.0000
  H   H97       1.0  0.30847  0.56606  0.11916  1.0000
  H   H98       1.0  0.26899  0.56635  0.03734  1.0000
  H   H99       1.0  0.06696  0.03169  0.43741  1.0000
  H   H100      1.0  0.10674  0.10827  0.43930  1.0000
  C   C170      1.0  0.57907  0.41976  0.77550  1.0000
  C   C171      1.0  0.60144  0.41950  0.72935  1.0000
  C   C172      1.0  0.81792  0.53695  0.04097  1.0000
  C   C173      1.0  0.79576  0.57916  0.04252  1.0000
  H   H101      1.0  0.06956  0.33702  0.93384  1.0000
  H   H102      1.0  0.10920  0.41393  0.93611  1.0000
  H   H103      1.0  0.17079  0.52791  0.88980  1.0000
  H   H104      1.0  0.20920  0.60630  0.88574  1.0000
  C   C174      1.0  0.64950  0.38427  0.29128  1.0000
  C   C175      1.0  0.85241  0.87574  0.02822  1.0000
  C   C176      1.0  0.56417  0.61035  0.43407  1.0000
  C   C177      1.0  0.55516  0.61794  0.37092  1.0000
  C   C178      1.0  0.57899  0.61878  0.32177  1.0000
  C   C179      1.0  0.62549  0.61978  0.23043  1.0000
  N   N21       1.0  0.67156  0.65517  0.18397  1.0000
  C   C180      1.0  0.69433  0.65188  0.13839  1.0000
  C   C181      1.0  0.74033  0.65282  0.04535  1.0000
  C   C182      1.0  0.40566  0.60386  0.45468  1.0000
  H   H105      1.0  0.38706  0.59454  0.55073  1.0000
  C   C183      1.0  0.02519  0.03294  0.02595  1.0000
  C   C184      1.0  0.01550  0.97388  0.03198  1.0000
  C   C185      1.0  0.07911  0.00488  0.02714  1.0000
  C   C186      1.0  0.12371  0.91827  0.02614  1.0000
  N   N22       1.0  0.15056  0.83921  0.98039  1.0000
  C   C187      1.0  0.94510  0.05054  0.02131  1.0000
  H   H106      1.0  0.03051  0.93756  0.03746  1.0000
  H   H107      1.0  0.64925  0.41972  0.32519  1.0000
  H   H108      1.0  0.83763  0.87671  0.06990  1.0000
  C   C188      1.0  0.23902  0.65730  0.98368  1.0000
  N   N23       1.0  0.04599  0.15521  0.02714  1.0000
  N   N24       1.0  0.54585  0.61587  0.48641  1.0000
  C   C189      1.0  0.52577  0.62145  0.62095  1.0000
  C   C190      1.0  0.51644  0.63119  0.68517  1.0000
  C   C191      1.0  0.52506  0.62563  0.35210  1.0000
  C   C192      1.0  0.51559  0.63936  0.28851  1.0000
  H   H109      1.0  0.53062  0.64778  0.24927  1.0000
  H   H110      1.0  0.53161  0.63778  0.72455  1.0000
  C   C193      1.0  0.93498  0.80119  0.51987  1.0000
  C   C194      1.0  0.90440  0.82036  0.51047  1.0000
  C   C195      1.0  0.93605  0.89601  0.51999  1.0000
  C   C196      1.0  0.90506  0.87902  0.51042  1.0000
  H   H111      1.0  0.88525  0.79211  0.50368  1.0000
  H   H112      1.0  0.88649  0.90844  0.50346  1.0000
  N   N25       1.0  0.50017  0.62042  0.39103  1.0000
  N   N26       1.0  0.50074  0.61755  0.58211  1.0000
  Cu  Cu1       1.0  0.49985  0.38216  0.98847  1.0000
  N   N27       1.0  0.50030  0.37956  0.89316  1.0000
  N   N28       1.0  0.49935  0.38300  0.08383  1.0000
  Cu  Cu2       1.0  0.50050  0.61828  0.48662  1.0000
  N   N29       1.0  0.99865  0.75945  0.52683  1.0000
  N   N30       1.0  0.00063  0.93327  0.52538  1.0000
  Cu  Cu3       1.0  0.00040  0.15536  0.02118  1.0000
  N   N31       1.0  0.00053  0.24217  0.01847  1.0000
  N   N32       1.0  0.00038  0.06873  0.02179  1.0000
  Cu  Cu4       1.0  0.99963  0.84645  0.52625  1.0000
  C  Sn1       1.0  0.39661  0.32484  0.80790  1.0000
  C   C197      1.0  0.42141  0.36188  0.81221  1.0000
  C  Sn2       1.0  0.42221  0.41308  0.77714  1.0000
  C  Sn3       1.0  0.39771  0.42759  0.73694  1.0000
  C   C198      1.0  0.37294  0.39057  0.73265  1.0000
  C  Sn4       1.0  0.37212  0.33935  0.76770  1.0000
  O  Te1       1.0  0.39629  0.27388  0.84339  1.0000
  O  Te2       1.0  0.44724  0.44941  0.78222  1.0000
  O  Te3       1.0  0.39805  0.47859  0.70143  1.0000
  O  Te4       1.0  0.34710  0.30303  0.76264  1.0000
  Mg  Mg1       1.0  0.43716  0.51403  0.72441  1.0000
  Mg  Mg2       1.0  0.35715  0.23843  0.82045  1.0000
  C  Sn5       1.0  0.60220  0.55814  0.72577  1.0000
  C   C199      1.0  0.62630  0.59651  0.73232  1.0000
  C  Sn6       1.0  0.62617  0.64932  0.70026  1.0000
  C  Sn7       1.0  0.60143  0.66410  0.66086  1.0000
  C   C200      1.0  0.57734  0.62574  0.65433  1.0000
  C  Sn8       1.0  0.57746  0.57292  0.68636  1.0000
  O  Te5       1.0  0.60281  0.50558  0.75826  1.0000
  O  Te6       1.0  0.65053  0.68697  0.70754  1.0000
  O  Te7       1.0  0.60084  0.71671  0.62835  1.0000
  O  Te8       1.0  0.55312  0.53529  0.67911  1.0000
  Mg  Mg3       1.0  0.63927  0.75353  0.65350  1.0000
  Mg  Mg4       1.0  0.56434  0.46873  0.73314  1.0000
  C  Sn9       1.0  0.72629  0.28897  0.38968  1.0000
  C   C201      1.0  0.74170  0.33575  0.41526  1.0000
  C  Sn10      1.0  0.73125  0.39165  0.40504  1.0000
  C  Sn11      1.0  0.70484  0.40099  0.36854  1.0000
  C   C202      1.0  0.68944  0.35423  0.34299  1.0000
  C  Sn12      1.0  0.69988  0.29831  0.35318  1.0000
  O  Te9       1.0  0.73714  0.23347  0.40050  1.0000
  O  Te10      1.0  0.74705  0.43773  0.43108  1.0000
  O  Te11      1.0  0.69400  0.45655  0.35773  1.0000
  O  Te12      1.0  0.68409  0.25225  0.32717  1.0000
  Mg  Mg5       1.0  0.72334  0.50534  0.40313  1.0000
  Mg  Mg6       1.0  0.70777  0.18462  0.35511  1.0000
  C  Sn13      1.0  0.79399  0.74619  0.04992  1.0000
  C   C203      1.0  0.78083  0.70939  0.99800  1.0000
  C  Sn14      1.0  0.79230  0.71829  0.93728  1.0000
  C  Sn15      1.0  0.81824  0.75329  0.92827  1.0000
  C   C204      1.0  0.83216  0.77867  0.98017  1.0000
  C  Sn16      1.0  0.81993  0.78119  0.04091  1.0000
  O  Te13      1.0  0.78214  0.73671  0.11020  1.0000
  O  Te14      1.0  0.77797  0.69244  0.88610  1.0000
  O  Te15      1.0  0.83008  0.76276  0.86793  1.0000
  O  Te16      1.0  0.83425  0.80701  0.09207  1.0000
  Mg  Mg7       1.0  0.80262  0.71821  0.81317  1.0000
  Mg  Mg8       1.0  0.80963  0.78124  0.16502  1.0000
  C  Sn17      1.0  0.20644  0.25376  0.55182  1.0000
  C   C205      1.0  0.21956  0.28148  0.49975  1.0000
  C  Sn18      1.0  0.20659  0.27679  0.43991  1.0000
  C  Sn19      1.0  0.17994  0.24372  0.43194  1.0000
  C   C206      1.0  0.16683  0.21603  0.48398  1.0000
  C  Sn20      1.0  0.17979  0.22070  0.54385  1.0000
  O  Te17      1.0  0.21979  0.25905  0.61121  1.0000
  O  Te18      1.0  0.22012  0.30487  0.38856  1.0000
  O  Te19      1.0  0.16659  0.23845  0.37249  1.0000
  O  Te20      1.0  0.16627  0.19264  0.59517  1.0000
  Mg  Mg9       1.0  0.19344  0.28473  0.31709  1.0000
  Mg  Mg10      1.0  0.19292  0.21277  0.66667  1.0000
  C  Sn21      1.0  0.37552  0.65585  0.67204  1.0000
  C   C207      1.0  0.37068  0.61653  0.72141  1.0000
  C  Sn22      1.0  0.39351  0.57874  0.74008  1.0000
  C  Sn23      1.0  0.42176  0.58029  0.70878  1.0000
  C   C208      1.0  0.42658  0.61959  0.65945  1.0000
  C  Sn24      1.0  0.40377  0.65740  0.64074  1.0000
  O  Te21      1.0  0.35238  0.69323  0.65416  1.0000
  O  Te22      1.0  0.38814  0.53980  0.78955  1.0000
  O  Te23      1.0  0.44490  0.54286  0.72670  1.0000
  O  Te24      1.0  0.40913  0.69633  0.59130  1.0000
  Mg  Mg11      1.0  0.42671  0.49762  0.79672  1.0000
  Mg  Mg12      1.0  0.37058  0.73854  0.58413  1.0000
  C  Sn25      1.0  0.87465  0.67283  0.57018  1.0000
  C   C209      1.0  0.86920  0.63061  0.52520  1.0000
  C  Sn26      1.0  0.89080  0.61872  0.47932  1.0000
  C  Sn27      1.0  0.91844  0.64963  0.47839  1.0000
  C   C210      1.0  0.92389  0.69181  0.52336  1.0000
  C  Sn28      1.0  0.90229  0.70374  0.56926  1.0000
  O  Te25      1.0  0.85274  0.68401  0.61562  1.0000
  O  Te26      1.0  0.88484  0.57633  0.43482  1.0000
  O  Te27      1.0  0.94036  0.63842  0.43290  1.0000
  O  Te28      1.0  0.90825  0.74609  0.61374  1.0000
  Mg  Mg13      1.0  0.92175  0.57668  0.38236  1.0000
  Mg  Mg14      1.0  0.87136  0.74575  0.66624  1.0000
  C  Sn29      1.0  0.28406  0.40465  0.61811  1.0000
  C   C211      1.0  0.29813  0.35741  0.64672  1.0000
  C  Sn30      1.0  0.29534  0.30279  0.62070  1.0000
  C  Sn31      1.0  0.27814  0.29522  0.56490  1.0000
  C   C212      1.0  0.26409  0.34244  0.53632  1.0000
  C  Sn32      1.0  0.26686  0.39708  0.56231  1.0000
  O  Te29      1.0  0.28716  0.45886  0.64494  1.0000
  O  Te30      1.0  0.30960  0.25621  0.65017  1.0000
  O  Te31      1.0  0.27505  0.24095  0.53808  1.0000
  O  Te32      1.0  0.25261  0.44364  0.53287  1.0000
  Mg  Mg15      1.0  0.29873  0.19085  0.59560  1.0000
  Mg  Mg16      1.0  0.26348  0.50902  0.58738  1.0000
  C  Sn33      1.0  0.87674  0.98063  0.06834  1.0000
  C   C213      1.0  0.87201  0.93624  0.02560  1.0000
  C  Sn34      1.0  0.89511  0.91077  0.98206  1.0000
  C  Sn35      1.0  0.92275  0.94167  0.98125  1.0000
  C   C214      1.0  0.92670  0.99741  0.02398  1.0000
  C  Sn36      1.0  0.90219  0.01154  0.06753  1.0000
  O  Te33      1.0  0.85411  0.99398  0.11145  1.0000
  O  Te34      1.0  0.88985  0.86623  0.93978  1.0000
  O  Te35      1.0  0.94538  0.92829  0.93809  1.0000
  O  Te36      1.0  0.90744  0.05604  0.10980  1.0000
  Mg  Mg17      1.0  0.92758  0.86409  0.89003  1.0000
  Mg  Mg18      1.0  0.86973  0.05819  0.15958  1.0000
  C  Sn37      1.0  0.89059  0.30614  0.06312  1.0000
  C   C215      1.0  0.91284  0.29774  0.01754  1.0000
  C  Sn38      1.0  0.92015  0.32946  0.97311  1.0000
  C  Sn39      1.0  0.90414  0.38206  0.97429  1.0000
  C   C216      1.0  0.88114  0.40182  0.01986  1.0000
  C  Sn40      1.0  0.87458  0.35874  0.06430  1.0000
  O  Te37      1.0  0.88443  0.26246  0.10708  1.0000
  O  Te38      1.0  0.94248  0.32006  0.92799  1.0000
  O  Te39      1.0  0.91032  0.42575  0.93028  1.0000
  O  Te40      1.0  0.85227  0.36813  0.10941  1.0000
  Mg  Mg19      1.0  0.94272  0.39256  0.87812  1.0000
  Mg  Mg20      1.0  0.85202  0.29567  0.15932  1.0000
  C  Sn41      1.0  0.27081  0.40475  0.38608  1.0000
  C   C217      1.0  0.25736  0.35756  0.41643  1.0000
  C  Sn42      1.0  0.27028  0.30309  0.41252  1.0000
  C  Sn43      1.0  0.29721  0.29562  0.37757  1.0000
  C   C218      1.0  0.31064  0.34279  0.34726  1.0000
  C  Sn44      1.0  0.29774  0.39729  0.35114  1.0000
  O  Te41      1.0  0.25750  0.45882  0.39063  1.0000
  O  Te42      1.0  0.25642  0.25656  0.44324  1.0000
  O  Te43      1.0  0.31052  0.24150  0.37304  1.0000
  O  Te44      1.0  0.31158  0.44380  0.32045  1.0000
  Mg  Mg21      1.0  0.28317  0.19140  0.42314  1.0000
  Mg  Mg22      1.0  0.28487  0.50897  0.34054  1.0000
  C  Sn45      1.0  0.19229  0.77069  0.04715  1.0000
  C   C219      1.0  0.18083  0.78951  0.99584  1.0000
  C  Sn46      1.0  0.18516  0.77016  0.93439  1.0000
  C  Sn47      1.0  0.20206  0.71954  0.92402  1.0000
  C   C220      1.0  0.21428  0.68936  0.97532  1.0000
  C  Sn48      1.0  0.20919  0.72007  0.03678  1.0000
  O  Te45      1.0  0.18768  0.79082  0.10818  1.0000
  O  Te46      1.0  0.17272  0.80109  0.88384  1.0000
  O  Te47      1.0  0.20666  0.69943  0.86294  1.0000
  O  Te48      1.0  0.22162  0.68916  0.08731  1.0000
  Mg  Mg23      1.0  0.18520  0.75642  0.80947  1.0000
  Mg  Mg24      1.0  0.20914  0.73378  0.16170  1.0000
  C  Sn49      1.0  0.73091  0.59821  0.88297  1.0000
  C   C221      1.0  0.74247  0.64575  0.91474  1.0000
  C  Sn50      1.0  0.72708  0.69801  0.91334  1.0000
  C  Sn51      1.0  0.69956  0.70284  0.87950  1.0000
  C   C222      1.0  0.68801  0.65532  0.84776  1.0000
  C  Sn52      1.0  0.70339  0.60304  0.84913  1.0000
  O  Te49      1.0  0.74667  0.54639  0.88502  1.0000
  O  Te50      1.0  0.73909  0.74495  0.94545  1.0000
  O  Te51      1.0  0.68380  0.75472  0.87747  1.0000
  O  Te52      1.0  0.69139  0.55612  0.81706  1.0000
  Mg  Mg25      1.0  0.70928  0.80641  0.92869  1.0000
  Mg  Mg26      1.0  0.72117  0.49464  0.83381  1.0000
  C  Sn53      1.0  0.28111  0.59879  0.90445  1.0000
  C   C223      1.0  0.26834  0.64662  0.93317  1.0000
  C  Sn54      1.0  0.27287  0.70164  0.90774  1.0000
  C  Sn55      1.0  0.29051  0.70901  0.85243  1.0000
  C   C224      1.0  0.30326  0.66120  0.82374  1.0000
  C  Sn56      1.0  0.29875  0.60616  0.84914  1.0000
  O  Te53      1.0  0.27628  0.54419  0.93069  1.0000
  O  Te54      1.0  0.25989  0.74880  0.93731  1.0000
  O  Te55      1.0  0.29532  0.76367  0.82621  1.0000
  O  Te56      1.0  0.31171  0.55902  0.81960  1.0000
  Mg  Mg27      1.0  0.27293  0.81453  0.88363  1.0000
  Mg  Mg28      1.0  0.29868  0.49327  0.87322  1.0000
  C  Sn57      1.0  0.58861  0.43860  0.19995  1.0000
  C   C225      1.0  0.58323  0.39790  0.15329  1.0000
  C  Sn58      1.0  0.59764  0.34465  0.15572  1.0000
  C  Sn59      1.0  0.61784  0.33181  0.20587  1.0000
  C   C226      1.0  0.62321  0.37250  0.25249  1.0000
  C  Sn60      1.0  0.60881  0.42576  0.25009  1.0000
  O  Te57      1.0  0.57395  0.49155  0.19657  1.0000
  O  Te58      1.0  0.59190  0.30466  0.10852  1.0000
  O  Te59      1.0  0.63250  0.27881  0.20921  1.0000
  O  Te60      1.0  0.61454  0.46574  0.29726  1.0000
  Mg  Mg29      1.0  0.61731  0.23848  0.13379  1.0000
  Mg  Mg30      1.0  0.58913  0.53192  0.27206  1.0000
  C  Sn61      1.0  0.71777  0.28818  0.57073  1.0000
  C   C227      1.0  0.73035  0.33465  0.53752  1.0000
  C  Sn62      1.0  0.72627  0.39071  0.55860  1.0000
  C  Sn63      1.0  0.70928  0.40053  0.61405  1.0000
  C   C228      1.0  0.69672  0.35408  0.64723  1.0000
  C  Sn64      1.0  0.70078  0.29800  0.62618  1.0000
  O  Te61      1.0  0.72214  0.23250  0.54879  1.0000
  O  Te62      1.0  0.73906  0.43647  0.52459  1.0000
  O  Te63      1.0  0.70492  0.45627  0.63597  1.0000
  O  Te64      1.0  0.68801  0.25226  0.66016  1.0000
  Mg  Mg31      1.0  0.72682  0.50449  0.57340  1.0000
  Mg  Mg32      1.0  0.70025  0.18423  0.61142  1.0000
