data_image0
_chemical_formula_structural       CHCHC4H2C3NCHC2NCH2C3NCHC2NCH2CN2C4H2C3NCHC2NCH2C3NCHC2NCH2CN2C4H2CHCHC4H2CuN4CuSnCSn2CSnTe4Mg2SnCSn2CSnTe4Mg2SnCSn2CSnTe4Mg2SnCSn2CSnTe4Mg2SnCSn2CSnTe4Mg2SnCSn2CSnTe4Mg2SnCSn2CSnTe4Mg2SnCSn2CSnTe4Mg2SnCSn2CSnTe4Mg2SnCSn2CSnTe4Mg2SnCSn2CSnTe4Mg2SnCSn2CSnTe4Mg2SnCSn2CSnTe4Mg2SnCSn2CSnTe4Mg2SnCSn2CSnTe4Mg2SnCSn2CSnTe4Mg2
_chemical_formula_sum              "C82 H24 N16 Cu2 Sn64 Te64 Mg32"
_cell_length_a       44.3081
_cell_length_b       23.272
_cell_length_c       21.1889
_cell_angle_alpha    90.1968
_cell_angle_beta     89.9432
_cell_angle_gamma    89.8326

_symmetry_space_group_name_H-M    'P1'
_space_group_IT_number       1

loop_
  _space_group_symop_operation_xyz
  'x, y, z'

loop_
  _atom_site_type_symbol
  _atom_site_label
  _atom_site_symmetry_multiplicity
  _atom_site_fract_x
  _atom_site_fract_y
  _atom_site_fract_z
  _atom_site_occupancy
  C   C1        1.0  0.34979  0.38442  0.68552  1.0000
  H   H1        1.0  0.35183  0.41679  0.64801  1.0000
  C   C2        1.0  0.34917  0.38310  0.28806  1.0000
  H   H2        1.0  0.35008  0.41774  0.32354  1.0000
  C   C3        1.0  0.06431  0.79816  0.51956  1.0000
  C   C4        1.0  0.09552  0.81504  0.51383  1.0000
  C   C5        1.0  0.06534  0.89306  0.52316  1.0000
  C   C6        1.0  0.09618  0.87370  0.51614  1.0000
  H   H3        1.0  0.11423  0.78548  0.50783  1.0000
  H   H4        1.0  0.11565  0.90155  0.51289  1.0000
  C   C7        1.0  0.85106  0.57146  0.52551  1.0000
  C   C8        1.0  0.56356  0.38574  0.03828  1.0000
  C   C9        1.0  0.55454  0.38035  0.10152  1.0000
  N   N1        1.0  0.66970  0.34913  0.29225  1.0000
  C   C10       1.0  0.40510  0.40251  0.01917  1.0000
  H   H5        1.0  0.38661  0.41389  0.92346  1.0000
  C   C11       1.0  0.02406  0.72453  0.52367  1.0000
  C   C12       1.0  0.01411  0.66595  0.53106  1.0000
  N   N2        1.0  0.14906  0.52589  0.47973  1.0000
  C   C13       1.0  0.94403  0.74500  0.52327  1.0000
  H   H6        1.0  0.02894  0.62919  0.53614  1.0000
  H   H7        1.0  0.83365  0.57713  0.56211  1.0000
  C   C14       1.0  0.85421  0.13118  0.52414  1.0000
  C   C15       1.0  0.56359  0.38410  0.93391  1.0000
  C   C16       1.0  0.55461  0.37761  0.87070  1.0000
  N   N3        1.0  0.67136  0.33807  0.68380  1.0000
  C   C17       1.0  0.40524  0.40422  0.95475  1.0000
  H   H8        1.0  0.38633  0.41045  0.05076  1.0000
  C   C18       1.0  0.02647  0.96919  0.53242  1.0000
  C   C19       1.0  0.01739  0.02791  0.54399  1.0000
  N   N4        1.0  0.15297  0.16012  0.48660  1.0000
  C   C20       1.0  0.94631  0.95507  0.52525  1.0000
  H   H9        1.0  0.03271  0.06304  0.55354  1.0000
  H   H10       1.0  0.83947  0.13153  0.56603  1.0000
  C   C21       1.0  0.23896  0.34568  0.48766  1.0000
  N   N5        1.0  0.04609  0.84633  0.52422  1.0000
  N   N6        1.0  0.54498  0.38017  0.98612  1.0000
  C   C22       1.0  0.52438  0.37376  0.12047  1.0000
  C   C23       1.0  0.51478  0.36136  0.18406  1.0000
  C   C24       1.0  0.52435  0.37359  0.85165  1.0000
  C   C25       1.0  0.51453  0.36293  0.78771  1.0000
  H   H11       1.0  0.52932  0.35354  0.74827  1.0000
  H   H12       1.0  0.52979  0.35271  0.22315  1.0000
  C   C26       1.0  0.14615  0.56443  0.52333  1.0000
  C   C27       1.0  0.43550  0.38915  0.03881  1.0000
  C   C28       1.0  0.44440  0.38128  0.10169  1.0000
  N   N7        1.0  0.32860  0.34393  0.28968  1.0000
  C   C29       1.0  0.59420  0.39611  0.01814  1.0000
  H   H13       1.0  0.61298  0.40201  0.92192  1.0000
  C   C30       1.0  0.97419  0.72639  0.52516  1.0000
  C   C31       1.0  0.98331  0.66712  0.53212  1.0000
  N   N8        1.0  0.85033  0.52944  0.48557  1.0000
  C   C32       1.0  0.05445  0.74091  0.52081  1.0000
  H   H14       1.0  0.96805  0.63135  0.53817  1.0000
  H   H15       1.0  0.16123  0.56634  0.56458  1.0000
  C   C33       1.0  0.15041  0.12260  0.53101  1.0000
  C   C34       1.0  0.43569  0.39157  0.93470  1.0000
  C   C35       1.0  0.44458  0.38563  0.87144  1.0000
  N   N9        1.0  0.32814  0.34737  0.68633  1.0000
  C   C36       1.0  0.59420  0.39505  0.95365  1.0000
  H   H16       1.0  0.61319  0.40373  0.04914  1.0000
  C   C37       1.0  0.97667  0.97109  0.53064  1.0000
  C   C38       1.0  0.98659  0.02909  0.54261  1.0000
  N   N10       1.0  0.85003  0.16605  0.47770  1.0000
  C   C39       1.0  0.05660  0.95087  0.52852  1.0000
  H   H17       1.0  0.97171  0.06538  0.55045  1.0000
  H   H18       1.0  0.16624  0.12063  0.57098  1.0000
  C   C40       1.0  0.76124  0.34844  0.48655  1.0000
  N   N11       1.0  0.95470  0.84961  0.52416  1.0000
  N   N12       1.0  0.45411  0.38422  0.98663  1.0000
  C   C41       1.0  0.47451  0.37362  0.12027  1.0000
  C   C42       1.0  0.48393  0.36094  0.18383  1.0000
  C   C43       1.0  0.47456  0.37791  0.85194  1.0000
  C   C44       1.0  0.48374  0.36590  0.78788  1.0000
  H   H19       1.0  0.46848  0.35962  0.74862  1.0000
  H   H20       1.0  0.46871  0.35187  0.22251  1.0000
  C   C45       1.0  0.64816  0.37174  0.68140  1.0000
  H   H21       1.0  0.64491  0.40266  0.64275  1.0000
  C   C46       1.0  0.64977  0.38941  0.28742  1.0000
  H   H22       1.0  0.64940  0.42680  0.31942  1.0000
  C   C47       1.0  0.93544  0.80303  0.52074  1.0000
  C   C48       1.0  0.90469  0.82256  0.51367  1.0000
  C   C49       1.0  0.93650  0.89794  0.52104  1.0000
  C   C50       1.0  0.90536  0.88120  0.51378  1.0000
  H   H23       1.0  0.88535  0.79469  0.50823  1.0000
  H   H24       1.0  0.88663  0.91075  0.50873  1.0000
  Cu  Cu1       1.0  0.49953  0.38118  0.98630  1.0000
  N   N13       1.0  0.49959  0.38101  0.89066  1.0000
  N   N14       1.0  0.49949  0.37933  0.08161  1.0000
  N   N15       1.0  0.99942  0.76112  0.52108  1.0000
  N   N16       1.0  0.00129  0.93466  0.52598  1.0000
  Cu  Cu2       1.0  0.00039  0.84793  0.52331  1.0000
  C  Sn1       1.0  0.07829  0.63381  0.47567  1.0000
  C   C51       1.0  0.07327  0.67695  0.52055  1.0000
  C  Sn2       1.0  0.09535  0.68994  0.56534  1.0000
  C  Sn3       1.0  0.12304  0.65921  0.56525  1.0000
  C   C52       1.0  0.12805  0.61611  0.52039  1.0000
  C  Sn4       1.0  0.10598  0.60308  0.47558  1.0000
  O  Te1       1.0  0.05589  0.62154  0.43133  1.0000
  O  Te2       1.0  0.08981  0.73323  0.60974  1.0000
  O  Te3       1.0  0.14544  0.67151  0.60964  1.0000
  O  Te4       1.0  0.11151  0.55982  0.43119  1.0000
  Mg  Mg1       1.0  0.12730  0.73420  0.66051  1.0000
  Mg  Mg2       1.0  0.07405  0.55884  0.38038  1.0000
  C  Sn5       1.0  0.17885  0.43486  0.42606  1.0000
  C   C53       1.0  0.16707  0.46562  0.47726  1.0000
  C  Sn6       1.0  0.18168  0.46472  0.53564  1.0000
  C  Sn7       1.0  0.20864  0.43241  0.54300  1.0000
  C   C54       1.0  0.22040  0.40168  0.49182  1.0000
  C  Sn8       1.0  0.20580  0.40255  0.43342  1.0000
  O  Te5       1.0  0.16387  0.43638  0.36813  1.0000
  O  Te6       1.0  0.16947  0.49581  0.58614  1.0000
  O  Te7       1.0  0.22362  0.43091  0.60099  1.0000
  O  Te8       1.0  0.21800  0.37150  0.38294  1.0000
  Mg  Mg3       1.0  0.19815  0.48030  0.65567  1.0000
  Mg  Mg4       1.0  0.18936  0.38699  0.31338  1.0000
  C  Sn9       1.0  0.39696  0.43748  0.22370  1.0000
  C   C55       1.0  0.37304  0.39886  0.22972  1.0000
  C  Sn10      1.0  0.37391  0.34584  0.19865  1.0000
  C  Sn11      1.0  0.39921  0.33110  0.16080  1.0000
  C   C56       1.0  0.42311  0.36971  0.15480  1.0000
  C  Sn12      1.0  0.42226  0.42274  0.18585  1.0000
  O  Te9       1.0  0.39562  0.49024  0.25518  1.0000
  O  Te10      1.0  0.34973  0.30794  0.20537  1.0000
  O  Te11      1.0  0.40053  0.27829  0.12930  1.0000
  O  Te12      1.0  0.44642  0.46062  0.17915  1.0000
  Mg  Mg5       1.0  0.36206  0.24116  0.15316  1.0000
  Mg  Mg6       1.0  0.43412  0.52739  0.23136  1.0000
  C  Sn13      1.0  0.26784  0.40000  0.37898  1.0000
  C   C57       1.0  0.25694  0.35292  0.41275  1.0000
  C  Sn14      1.0  0.27257  0.30070  0.41192  1.0000
  C  Sn15      1.0  0.29966  0.29543  0.37664  1.0000
  C   C58       1.0  0.31055  0.34249  0.34291  1.0000
  C  Sn16      1.0  0.29493  0.39473  0.34370  1.0000
  O  Te13      1.0  0.25185  0.45179  0.38049  1.0000
  O  Te14      1.0  0.26123  0.25424  0.44604  1.0000
  O  Te15      1.0  0.31565  0.24359  0.37516  1.0000
  O  Te16      1.0  0.30626  0.44118  0.30962  1.0000
  Mg  Mg7       1.0  0.29112  0.19263  0.42929  1.0000
  Mg  Mg8       1.0  0.27640  0.50281  0.32636  1.0000
  C  Sn17      1.0  0.10366  0.01512  0.59240  1.0000
  C   C59       1.0  0.08136  0.00654  0.54675  1.0000
  C  Sn18      1.0  0.08385  0.03215  0.48745  1.0000
  C  Sn19      1.0  0.10917  0.06705  0.47348  1.0000
  C   C60       1.0  0.13145  0.07561  0.51910  1.0000
  C  Sn20      1.0  0.12897  0.05001  0.57842  1.0000
  O  Te17      1.0  0.09916  0.98909  0.65136  1.0000
  O  Te18      1.0  0.06127  0.02296  0.44259  1.0000
  O  Te19      1.0  0.11211  0.09308  0.41446  1.0000
  O  Te20      1.0  0.15154  0.05918  0.62326  1.0000
  Mg  Mg9       1.0  0.07547  0.06766  0.36903  1.0000
  Mg  Mg10      1.0  0.13738  0.01448  0.69682  1.0000
  C  Sn21      1.0  0.19700  0.26968  0.42652  1.0000
  C   C61       1.0  0.20956  0.29884  0.47788  1.0000
  C  Sn22      1.0  0.20638  0.27726  0.53896  1.0000
  C  Sn23      1.0  0.19032  0.22544  0.54890  1.0000
  C   C62       1.0  0.17777  0.19631  0.49756  1.0000
  C  Sn24      1.0  0.18094  0.21786  0.43646  1.0000
  O  Te21      1.0  0.20046  0.29204  0.36587  1.0000
  O  Te22      1.0  0.21912  0.30718  0.58956  1.0000
  O  Te23      1.0  0.18686  0.20310  0.60961  1.0000
  O  Te24      1.0  0.16821  0.18796  0.38588  1.0000
  Mg  Mg11      1.0  0.20832  0.25944  0.66332  1.0000
  Mg  Mg12      1.0  0.17901  0.23565  0.31210  1.0000
  C  Sn25      1.0  0.40762  0.41815  0.72574  1.0000
  C   C63       1.0  0.38265  0.38168  0.72291  1.0000
  C  Sn26      1.0  0.37463  0.34848  0.77507  1.0000
  C  Sn27      1.0  0.39193  0.35181  0.83125  1.0000
  C   C64       1.0  0.41688  0.38826  0.83406  1.0000
  C  Sn28      1.0  0.42491  0.42148  0.78192  1.0000
  O  Te25      1.0  0.41521  0.45096  0.67303  1.0000
  O  Te26      1.0  0.34958  0.31232  0.77111  1.0000
  O  Te27      1.0  0.38431  0.31896  0.88398  1.0000
  O  Te28      1.0  0.44994  0.45763  0.78587  1.0000
  Mg  Mg13      1.0  0.34824  0.27616  0.85550  1.0000
  Mg  Mg14      1.0  0.45129  0.49383  0.70152  1.0000
  C  Sn29      1.0  0.29584  0.29241  0.59492  1.0000
  C   C65       1.0  0.30874  0.34032  0.62414  1.0000
  C  Sn30      1.0  0.29569  0.39466  0.61730  1.0000
  C  Sn31      1.0  0.26919  0.40124  0.58052  1.0000
  C   C66       1.0  0.25630  0.35335  0.55134  1.0000
  C  Sn32      1.0  0.26933  0.29899  0.55814  1.0000
  O  Te29      1.0  0.30926  0.23850  0.60240  1.0000
  O  Te30      1.0  0.30901  0.44192  0.64694  1.0000
  O  Te31      1.0  0.25577  0.45521  0.57306  1.0000
  O  Te32      1.0  0.25603  0.25175  0.52853  1.0000
  Mg  Mg15      1.0  0.28231  0.50653  0.62271  1.0000
  Mg  Mg16      1.0  0.28270  0.18713  0.55276  1.0000
  C  Sn33      1.0  0.60192  0.32709  0.17155  1.0000
  C   C67       1.0  0.57845  0.36647  0.16261  1.0000
  C  Sn34      1.0  0.57980  0.42110  0.18997  1.0000
  C  Sn35      1.0  0.60515  0.43671  0.22701  1.0000
  C   C68       1.0  0.62861  0.39735  0.23592  1.0000
  C  Sn36      1.0  0.62727  0.34271  0.20859  1.0000
  O  Te33      1.0  0.60009  0.27272  0.14375  1.0000
  O  Te34      1.0  0.55606  0.45972  0.18037  1.0000
  O  Te35      1.0  0.60697  0.49114  0.25481  1.0000
  O  Te36      1.0  0.65099  0.30410  0.21816  1.0000
  Mg  Mg17      1.0  0.56897  0.52872  0.22801  1.0000
  Mg  Mg18      1.0  0.63811  0.23511  0.17052  1.0000
  C  Sn37      1.0  0.71925  0.40357  0.35050  1.0000
  C   C69       1.0  0.70128  0.35822  0.32924  1.0000
  C  Sn38      1.0  0.69970  0.30712  0.36346  1.0000
  C  Sn39      1.0  0.71641  0.30123  0.42014  1.0000
  C   C70       1.0  0.73436  0.34656  0.44138  1.0000
  C  Sn40      1.0  0.73596  0.39768  0.40718  1.0000
  O  Te37      1.0  0.72050  0.45427  0.31553  1.0000
  O  Te38      1.0  0.68158  0.26238  0.34125  1.0000
  O  Te39      1.0  0.71515  0.25048  0.45511  1.0000
  O  Te40      1.0  0.75406  0.44241  0.42937  1.0000
  Mg  Mg19      1.0  0.68727  0.20176  0.40552  1.0000
  Mg  Mg20      1.0  0.74838  0.50305  0.36516  1.0000
  C  Sn41      1.0  0.89091  0.00279  0.56910  1.0000
  C   C71       1.0  0.91225  0.99332  0.52477  1.0000
  C  Sn42      1.0  0.92104  0.03570  0.48081  1.0000
  C  Sn43      1.0  0.90513  0.08867  0.48120  1.0000
  C   C72       1.0  0.88228  0.09812  0.52552  1.0000
  C  Sn44      1.0  0.87500  0.05576  0.56949  1.0000
  O  Te41      1.0  0.88250  0.95981  0.61260  1.0000
  O  Te42      1.0  0.94399  0.02523  0.43694  1.0000
  O  Te43      1.0  0.91202  0.13165  0.43764  1.0000
  O  Te44      1.0  0.85207  0.06620  0.61335  1.0000
  Mg  Mg21      1.0  0.94509  0.09709  0.38725  1.0000
  Mg  Mg22      1.0  0.84942  0.99439  0.66307  1.0000
  C  Sn45      1.0  0.81331  0.24420  0.41837  1.0000
  C   C73       1.0  0.83081  0.22409  0.46855  1.0000
  C  Sn46      1.0  0.82276  0.23698  0.53077  1.0000
  C  Sn47      1.0  0.79666  0.27065  0.54311  1.0000
  C   C74       1.0  0.77918  0.29073  0.49296  1.0000
  C  Sn48      1.0  0.78722  0.27787  0.43071  1.0000
  O  Te45      1.0  0.82179  0.23079  0.35654  1.0000
  O  Te46      1.0  0.84061  0.21641  0.58015  1.0000
  O  Te47      1.0  0.78820  0.28406  0.60500  1.0000
  O  Te48      1.0  0.76938  0.29841  0.38136  1.0000
  Mg  Mg23      1.0  0.81976  0.24612  0.65628  1.0000
  Mg  Mg24      1.0  0.79020  0.26870  0.30521  1.0000
  C  Sn49      1.0  0.57699  0.40523  0.74846  1.0000
  C   C75       1.0  0.57435  0.37164  0.80272  1.0000
  C  Sn50      1.0  0.59887  0.33931  0.82420  1.0000
  C  Sn51      1.0  0.62660  0.34061  0.79077  1.0000
  C   C76       1.0  0.62923  0.37419  0.73655  1.0000
  C  Sn52      1.0  0.60473  0.40652  0.71503  1.0000
  O  Te49      1.0  0.55219  0.43720  0.72785  1.0000
  O  Te50      1.0  0.59568  0.30604  0.87855  1.0000
  O  Te51      1.0  0.65141  0.30860  0.81142  1.0000
  O  Te52      1.0  0.60790  0.43979  0.66072  1.0000
  Mg  Mg25      1.0  0.63594  0.26996  0.88794  1.0000
  Mg  Mg26      1.0  0.56766  0.47590  0.65131  1.0000
  C  Sn53      1.0  0.72621  0.40330  0.58634  1.0000
  C   C77       1.0  0.74226  0.35726  0.56013  1.0000
  C  Sn54      1.0  0.73263  0.30085  0.56971  1.0000
  C  Sn55      1.0  0.70640  0.29023  0.60621  1.0000
  C   C78       1.0  0.69036  0.33625  0.63239  1.0000
  C  Sn56      1.0  0.69998  0.39268  0.62284  1.0000
  O  Te53      1.0  0.73625  0.45933  0.57615  1.0000
  O  Te54      1.0  0.74906  0.25552  0.54304  1.0000
  O  Te55      1.0  0.69637  0.23414  0.61639  1.0000
  O  Te56      1.0  0.68356  0.43799  0.64947  1.0000
  Mg  Mg27      1.0  0.72636  0.18676  0.57027  1.0000
  Mg  Mg28      1.0  0.70623  0.50676  0.62226  1.0000
  C  Sn57      1.0  0.90971  0.65736  0.46194  1.0000
  C   C79       1.0  0.91414  0.70175  0.50551  1.0000
  C  Sn58      1.0  0.90013  0.70011  0.56457  1.0000
  C  Sn59      1.0  0.88132  0.65311  0.58043  1.0000
  C   C80       1.0  0.87690  0.60875  0.53688  1.0000
  C  Sn60      1.0  0.89089  0.61035  0.47780  1.0000
  O  Te57      1.0  0.92393  0.65988  0.40318  1.0000
  O  Te58      1.0  0.90490  0.74500  0.60733  1.0000
  O  Te59      1.0  0.86709  0.65061  0.63925  1.0000
  O  Te60      1.0  0.88614  0.56549  0.43506  1.0000
  Mg  Mg29      1.0  0.88058  0.72205  0.68147  1.0000
  Mg  Mg30      1.0  0.91046  0.58839  0.36093  1.0000
  C  Sn61      1.0  0.80938  0.41308  0.43086  1.0000
  C   C81       1.0  0.79237  0.39209  0.48130  1.0000
  C  Sn62      1.0  0.79100  0.42241  0.53824  1.0000
  C  Sn63      1.0  0.80695  0.47483  0.54490  1.0000
  C   C82       1.0  0.82394  0.49580  0.49448  1.0000
  C  Sn64      1.0  0.82533  0.46550  0.43752  1.0000
  O  Te61      1.0  0.81042  0.38205  0.37436  1.0000
  O  Te62      1.0  0.77386  0.40056  0.58801  1.0000
  O  Te63      1.0  0.80590  0.50586  0.60146  1.0000
  O  Te64      1.0  0.84246  0.48733  0.38777  1.0000
  Mg  Mg31      1.0  0.77945  0.45849  0.65560  1.0000
  Mg  Mg32      1.0  0.83687  0.42945  0.32015  1.0000
