data_image0
_chemical_formula_structural       C2H6CHC4H4CHC4H2C2H2C3NC3HC4NCH2C4H2C4H2C5NC3HC4NCH2CN2C4H4C5NCHC4NC3H2C2H4C2H4C3NC3HC2NCH2CN2C4H2C4H2C3H3C4H2CHC4H2CuN4CuC2Sn2C2HTe2HMgC2Sn2C2HTe2HMgC2Sn2C2HTe2HMgC2Sn2C2HTe2HMgC2Sn2C2HTe2HMgC2Sn2C2HTe2HMgC2Sn2C2HTe2HMgC2Sn2C2HTe2HMg
_chemical_formula_sum              "C130 H72 N16 Cu2 Sn16 Te16 Mg8"
_cell_length_a       44.3081
_cell_length_b       23.272
_cell_length_c       21.1889
_cell_angle_alpha    90.1968
_cell_angle_beta     89.9432
_cell_angle_gamma    89.8326

_symmetry_space_group_name_H-M    'P1'
_space_group_IT_number       1

loop_
  _space_group_symop_operation_xyz
  'x, y, z'

loop_
  _atom_site_type_symbol
  _atom_site_label
  _atom_site_symmetry_multiplicity
  _atom_site_fract_x
  _atom_site_fract_y
  _atom_site_fract_z
  _atom_site_occupancy
  C   C1        1.0  0.08001  0.65499  0.47065  1.0000
  C   C2        1.0  0.10218  0.61254  0.47062  1.0000
  H   H1        1.0  0.89845  0.73196  0.60843  1.0000
  H   H2        1.0  0.85861  0.65710  0.60873  1.0000
  H   H3        1.0  0.82032  0.48856  0.59047  1.0000
  H   H4        1.0  0.78148  0.41341  0.58880  1.0000
  H   H5        1.0  0.70241  0.44317  0.33158  1.0000
  H   H6        1.0  0.74237  0.44108  0.41253  1.0000
  C   C3        1.0  0.34979  0.38442  0.68552  1.0000
  H   H7        1.0  0.35183  0.41679  0.64801  1.0000
  C   C4        1.0  0.10200  0.99723  0.57839  1.0000
  C   C5        1.0  0.12457  0.03885  0.57882  1.0000
  C   C6        1.0  0.29448  0.40105  0.61385  1.0000
  C   C7        1.0  0.27250  0.39972  0.56686  1.0000
  H   H8        1.0  0.60215  0.30451  0.86455  1.0000
  H   H9        1.0  0.64290  0.30121  0.78283  1.0000
  H   H10       1.0  0.70349  0.25275  0.64221  1.0000
  H   H11       1.0  0.74317  0.25517  0.55947  1.0000
  C   C8        1.0  0.34917  0.38310  0.28806  1.0000
  H   H12       1.0  0.35008  0.41774  0.32354  1.0000
  C   C9        1.0  0.06431  0.79816  0.51956  1.0000
  C   C10       1.0  0.09552  0.81504  0.51383  1.0000
  C   C11       1.0  0.06534  0.89306  0.52316  1.0000
  C   C12       1.0  0.09618  0.87370  0.51614  1.0000
  H   H13       1.0  0.11423  0.78548  0.50783  1.0000
  H   H14       1.0  0.11565  0.90155  0.51289  1.0000
  C   C13       1.0  0.70793  0.40292  0.35491  1.0000
  C   C14       1.0  0.73075  0.40147  0.40039  1.0000
  H   H15       1.0  0.10046  0.96590  0.61620  1.0000
  H   H16       1.0  0.14095  0.03997  0.61707  1.0000
  C   C15       1.0  0.85106  0.57146  0.52551  1.0000
  C   C16       1.0  0.56356  0.38574  0.03828  1.0000
  C   C17       1.0  0.55454  0.38035  0.10152  1.0000
  N   N1        1.0  0.66970  0.34913  0.29225  1.0000
  C   C18       1.0  0.69264  0.35235  0.33761  1.0000
  C   C19       1.0  0.73898  0.35013  0.43047  1.0000
  C   C20       1.0  0.40510  0.40251  0.01917  1.0000
  H   H17       1.0  0.38661  0.41389  0.92346  1.0000
  C   C21       1.0  0.02406  0.72453  0.52367  1.0000
  C   C22       1.0  0.01411  0.66595  0.53106  1.0000
  C   C23       1.0  0.07781  0.69483  0.52074  1.0000
  C   C24       1.0  0.12269  0.60845  0.52121  1.0000
  N   N2        1.0  0.14906  0.52589  0.47973  1.0000
  C   C25       1.0  0.94403  0.74500  0.52327  1.0000
  H   H18       1.0  0.02894  0.62919  0.53614  1.0000
  H   H19       1.0  0.83365  0.57713  0.56211  1.0000
  C   C26       1.0  0.60208  0.33469  0.82545  1.0000
  C   C27       1.0  0.62472  0.33260  0.78012  1.0000
  C   C28       1.0  0.70957  0.29305  0.61976  1.0000
  C   C29       1.0  0.73176  0.29477  0.57310  1.0000
  H   H20       1.0  0.30265  0.44206  0.63167  1.0000
  H   H21       1.0  0.26426  0.44002  0.54751  1.0000
  C   C30       1.0  0.89783  0.69970  0.57123  1.0000
  C   C31       1.0  0.87551  0.65761  0.57136  1.0000
  C   C32       1.0  0.81364  0.46971  0.54558  1.0000
  C   C33       1.0  0.79171  0.42682  0.54458  1.0000
  H   H22       1.0  0.06420  0.65832  0.43160  1.0000
  H   H23       1.0  0.10428  0.58197  0.43184  1.0000
  C   C34       1.0  0.85421  0.13118  0.52414  1.0000
  C   C35       1.0  0.56359  0.38410  0.93391  1.0000
  C   C36       1.0  0.55461  0.37761  0.87070  1.0000
  C   C37       1.0  0.57847  0.37538  0.82161  1.0000
  C   C38       1.0  0.62448  0.37136  0.72923  1.0000
  N   N3        1.0  0.67136  0.33807  0.68380  1.0000
  C   C39       1.0  0.69396  0.34315  0.63781  1.0000
  C   C40       1.0  0.73969  0.34665  0.54386  1.0000
  C   C41       1.0  0.40524  0.40422  0.95475  1.0000
  H   H24       1.0  0.38633  0.41045  0.05076  1.0000
  C   C42       1.0  0.02647  0.96919  0.53242  1.0000
  C   C43       1.0  0.01739  0.02791  0.54399  1.0000
  C   C44       1.0  0.08061  0.99545  0.52956  1.0000
  C   C45       1.0  0.12645  0.07965  0.53020  1.0000
  N   N4        1.0  0.15297  0.16012  0.48660  1.0000
  C   C46       1.0  0.94631  0.95507  0.52525  1.0000
  H   H25       1.0  0.03271  0.06304  0.55354  1.0000
  H   H26       1.0  0.83947  0.13153  0.56603  1.0000
  C   C47       1.0  0.23896  0.34568  0.48766  1.0000
  N   N5        1.0  0.04609  0.84633  0.52422  1.0000
  N   N6        1.0  0.54498  0.38017  0.98612  1.0000
  C   C48       1.0  0.52438  0.37376  0.12047  1.0000
  C   C49       1.0  0.51478  0.36136  0.18406  1.0000
  C   C50       1.0  0.52435  0.37359  0.85165  1.0000
  C   C51       1.0  0.51453  0.36293  0.78771  1.0000
  H   H27       1.0  0.52932  0.35354  0.74827  1.0000
  H   H28       1.0  0.52979  0.35271  0.22315  1.0000
  H   H29       1.0  0.68990  0.26132  0.35244  1.0000
  H   H30       1.0  0.72909  0.25939  0.43585  1.0000
  C   C52       1.0  0.08239  0.03682  0.48122  1.0000
  C   C53       1.0  0.10495  0.07812  0.48134  1.0000
  C   C54       1.0  0.14615  0.56443  0.52333  1.0000
  C   C55       1.0  0.43550  0.38915  0.03881  1.0000
  C   C56       1.0  0.44440  0.38128  0.10169  1.0000
  N   N7        1.0  0.32860  0.34393  0.28968  1.0000
  C   C57       1.0  0.59420  0.39611  0.01814  1.0000
  H   H31       1.0  0.61298  0.40201  0.92192  1.0000
  C   C58       1.0  0.97419  0.72639  0.52516  1.0000
  C   C59       1.0  0.98331  0.66712  0.53212  1.0000
  C   C60       1.0  0.91994  0.70066  0.52359  1.0000
  C   C61       1.0  0.87474  0.61497  0.52419  1.0000
  N   N8        1.0  0.85033  0.52944  0.48557  1.0000
  C   C62       1.0  0.82782  0.48737  0.48941  1.0000
  C   C63       1.0  0.78300  0.40007  0.48797  1.0000
  C   C64       1.0  0.05445  0.74091  0.52081  1.0000
  H   H32       1.0  0.96805  0.63135  0.53817  1.0000
  H   H33       1.0  0.16123  0.56634  0.56458  1.0000
  C   C65       1.0  0.29377  0.29729  0.61803  1.0000
  C   C66       1.0  0.27212  0.29650  0.57048  1.0000
  H   H34       1.0  0.56040  0.44596  0.76754  1.0000
  H   H35       1.0  0.60063  0.44161  0.68569  1.0000
  H   H36       1.0  0.69178  0.43545  0.62547  1.0000
  H   H37       1.0  0.73057  0.43789  0.54210  1.0000
  C   C67       1.0  0.09830  0.69068  0.57102  1.0000
  C   C68       1.0  0.12044  0.64807  0.57128  1.0000
  H   H38       1.0  0.93571  0.65906  0.43864  1.0000
  H   H39       1.0  0.89619  0.58264  0.44015  1.0000
  H   H40       1.0  0.83163  0.47120  0.38991  1.0000
  H   H41       1.0  0.79262  0.39485  0.38820  1.0000
  C   C69       1.0  0.15041  0.12260  0.53101  1.0000
  C   C70       1.0  0.43569  0.39157  0.93470  1.0000
  C   C71       1.0  0.44458  0.38563  0.87144  1.0000
  N   N9        1.0  0.32814  0.34737  0.68633  1.0000
  C   C72       1.0  0.30577  0.34963  0.63969  1.0000
  C   C73       1.0  0.26076  0.34753  0.54436  1.0000
  C   C74       1.0  0.59420  0.39505  0.95365  1.0000
  H   H42       1.0  0.61319  0.40373  0.04914  1.0000
  C   C75       1.0  0.97667  0.97109  0.53064  1.0000
  C   C76       1.0  0.98659  0.02909  0.54261  1.0000
  N   N10       1.0  0.85003  0.16605  0.47770  1.0000
  C   C77       1.0  0.05660  0.95087  0.52852  1.0000
  H   H43       1.0  0.97171  0.06538  0.55045  1.0000
  H   H44       1.0  0.16624  0.12063  0.57098  1.0000
  C   C78       1.0  0.76124  0.34844  0.48655  1.0000
  N   N11       1.0  0.95470  0.84961  0.52416  1.0000
  N   N12       1.0  0.45411  0.38422  0.98663  1.0000
  C   C79       1.0  0.47451  0.37362  0.12027  1.0000
  C   C80       1.0  0.48393  0.36094  0.18383  1.0000
  C   C81       1.0  0.47456  0.37791  0.85194  1.0000
  C   C82       1.0  0.48374  0.36590  0.78788  1.0000
  H   H45       1.0  0.46848  0.35962  0.74862  1.0000
  H   H46       1.0  0.46871  0.35187  0.22251  1.0000
  C   C83       1.0  0.91898  0.65799  0.47620  1.0000
  C   C84       1.0  0.89694  0.61569  0.47655  1.0000
  C   C85       1.0  0.82001  0.45891  0.43300  1.0000
  C   C86       1.0  0.79801  0.41645  0.43238  1.0000
  H   H47       1.0  0.09642  0.72086  0.61009  1.0000
  H   H48       1.0  0.13613  0.64494  0.61064  1.0000
  C   C87       1.0  0.70142  0.30051  0.36647  1.0000
  C   C88       1.0  0.72359  0.29978  0.41280  1.0000
  C   C89       1.0  0.64816  0.37174  0.68140  1.0000
  H   H49       1.0  0.64491  0.40266  0.64275  1.0000
  H   H50       1.0  0.06603  0.03555  0.44303  1.0000
  H   H51       1.0  0.10674  0.10991  0.44398  1.0000
  C   C90       1.0  0.57820  0.41380  0.77052  1.0000
  C   C91       1.0  0.60084  0.41159  0.72498  1.0000
  C   C92       1.0  0.70239  0.39563  0.60984  1.0000
  C   C93       1.0  0.72466  0.39697  0.56348  1.0000
  H   H52       1.0  0.30219  0.25750  0.63837  1.0000
  H   H53       1.0  0.26380  0.25541  0.55348  1.0000
  C   C94       1.0  0.64977  0.38941  0.28742  1.0000
  H   H54       1.0  0.64940  0.42680  0.31942  1.0000
  C   C95       1.0  0.93544  0.80303  0.52074  1.0000
  C   C96       1.0  0.90469  0.82256  0.51367  1.0000
  C   C97       1.0  0.93650  0.89794  0.52104  1.0000
  C   C98       1.0  0.90536  0.88120  0.51378  1.0000
  H   H55       1.0  0.88535  0.79469  0.50823  1.0000
  H   H56       1.0  0.88663  0.91075  0.50873  1.0000
  Cu  Cu1       1.0  0.49953  0.38118  0.98630  1.0000
  N   N13       1.0  0.49959  0.38101  0.89066  1.0000
  N   N14       1.0  0.49949  0.37933  0.08161  1.0000
  N   N15       1.0  0.99942  0.76112  0.52108  1.0000
  N   N16       1.0  0.00129  0.93466  0.52598  1.0000
  Cu  Cu2       1.0  0.00039  0.84793  0.52331  1.0000
  C   C99       1.0  0.37798  0.33644  0.79541  1.0000
  C   C100      1.0  0.37226  0.37560  0.74699  1.0000
  C  Sn1       1.0  0.39252  0.42014  0.73496  1.0000
  C  Sn2       1.0  0.41898  0.42546  0.77217  1.0000
  C   C101      1.0  0.42450  0.38604  0.82047  1.0000
  C   C102      1.0  0.40407  0.34164  0.83212  1.0000
  H   H57       1.0  0.36218  0.30207  0.80440  1.0000
  O  Te1       1.0  0.38646  0.45891  0.68641  1.0000
  O  Te2       1.0  0.43961  0.46956  0.76115  1.0000
  H   H58       1.0  0.40852  0.31131  0.86958  1.0000
  Mg  Mg1       1.0  0.42138  0.51176  0.68964  1.0000
  C   C103      1.0  0.40359  0.42974  0.23749  1.0000
  C   C104      1.0  0.37785  0.39532  0.24056  1.0000
  C  Sn3       1.0  0.37402  0.34990  0.19805  1.0000
  C  Sn4       1.0  0.39644  0.33883  0.15167  1.0000
  C   C105      1.0  0.42212  0.37349  0.14902  1.0000
  C   C106      1.0  0.42572  0.41883  0.19177  1.0000
  H   H59       1.0  0.40639  0.46480  0.27059  1.0000
  O  Te3       1.0  0.34816  0.31594  0.20177  1.0000
  O  Te4       1.0  0.39319  0.29370  0.10862  1.0000
  H   H60       1.0  0.44566  0.44545  0.18940  1.0000
  Mg  Mg2       1.0  0.35398  0.25948  0.13263  1.0000
  C   C107      1.0  0.27508  0.40625  0.39236  1.0000
  C   C108      1.0  0.26161  0.35935  0.42215  1.0000
  C  Sn5       1.0  0.27164  0.30354  0.40932  1.0000
  C  Sn6       1.0  0.29560  0.29465  0.36586  1.0000
  C   C109      1.0  0.30893  0.34186  0.33634  1.0000
  C   C110      1.0  0.29872  0.39752  0.34951  1.0000
  H   H61       1.0  0.26719  0.44932  0.40257  1.0000
  O  Te5       1.0  0.25793  0.25717  0.43948  1.0000
  O  Te6       1.0  0.30607  0.23933  0.35219  1.0000
  H   H62       1.0  0.30916  0.43382  0.32647  1.0000
  Mg  Mg3       1.0  0.28014  0.18994  0.40528  1.0000
  C   C111      1.0  0.90655  0.07802  0.46749  1.0000
  C   C112      1.0  0.88245  0.08628  0.50919  1.0000
  C  Sn7       1.0  0.87967  0.05186  0.56277  1.0000
  C  Sn8       1.0  0.90144  0.00842  0.57470  1.0000
  C   C113      1.0  0.92394  0.00053  0.53271  1.0000
  C   C114      1.0  0.92804  0.03520  0.47923  1.0000
  H   H63       1.0  0.90854  0.10487  0.42613  1.0000
  O  Te7       1.0  0.85545  0.06067  0.60393  1.0000
  O  Te8       1.0  0.89767  0.97343  0.62790  1.0000
  H   H64       1.0  0.94670  0.02883  0.44697  1.0000
  Mg  Mg4       1.0  0.86062  0.00203  0.67002  1.0000
  C   C115      1.0  0.59648  0.43651  0.23173  1.0000
  C   C116      1.0  0.61945  0.39664  0.24322  1.0000
  C  Sn9       1.0  0.62263  0.34821  0.20461  1.0000
  C  Sn10      1.0  0.60241  0.33966  0.15357  1.0000
  C   C117      1.0  0.57951  0.37983  0.14244  1.0000
  C   C118      1.0  0.57653  0.42813  0.18138  1.0000
  H   H65       1.0  0.59418  0.47390  0.26183  1.0000
  O  Te9       1.0  0.64570  0.30878  0.21677  1.0000
  O  Te10      1.0  0.60508  0.29164  0.11423  1.0000
  H   H66       1.0  0.55876  0.45902  0.17245  1.0000
  Mg  Mg5       1.0  0.64014  0.25006  0.14992  1.0000
  C   C119      1.0  0.81748  0.25110  0.54716  1.0000
  C   C120      1.0  0.82552  0.21359  0.49828  1.0000
  C  Sn11      1.0  0.81250  0.21941  0.43862  1.0000
  C  Sn12      1.0  0.79103  0.26366  0.42782  1.0000
  C   C121      1.0  0.78316  0.30099  0.47702  1.0000
  C   C122      1.0  0.79632  0.29477  0.53655  1.0000
  H   H67       1.0  0.82768  0.24631  0.59321  1.0000
  O  Te11      1.0  0.82078  0.18155  0.39031  1.0000
  O  Te12      1.0  0.77768  0.27046  0.36864  1.0000
  H   H68       1.0  0.79010  0.32384  0.57438  1.0000
  Mg  Mg6       1.0  0.79631  0.20819  0.31785  1.0000
  C   C123      1.0  0.19720  0.42194  0.42067  1.0000
  C   C124      1.0  0.21386  0.40043  0.47138  1.0000
  C  Sn13      1.0  0.20774  0.41911  0.53282  1.0000
  C  Sn14      1.0  0.18449  0.46006  0.54355  1.0000
  C   C125      1.0  0.16794  0.48128  0.49250  1.0000
  C   C126      1.0  0.17426  0.46231  0.43121  1.0000
  H   H69       1.0  0.20207  0.40724  0.37325  1.0000
  O  Te13      1.0  0.22460  0.39720  0.58295  1.0000
  O  Te14      1.0  0.17789  0.47944  0.60448  1.0000
  H   H70       1.0  0.16134  0.47894  0.39196  1.0000
  Mg  Mg7       1.0  0.20714  0.43688  0.65739  1.0000
  C   C127      1.0  0.19121  0.23420  0.42342  1.0000
  C   C128      1.0  0.17792  0.20680  0.47499  1.0000
  C  Sn15      1.0  0.18396  0.22561  0.53637  1.0000
  C  Sn16      1.0  0.20367  0.27274  0.54615  1.0000
  C   C129      1.0  0.21684  0.29988  0.49424  1.0000
  C   C130      1.0  0.21065  0.28070  0.43302  1.0000
  H   H71       1.0  0.18641  0.21938  0.37605  1.0000
  O  Te15      1.0  0.17050  0.19774  0.58736  1.0000
  O  Te16      1.0  0.21009  0.29243  0.60699  1.0000
  H   H72       1.0  0.22093  0.30194  0.39310  1.0000
  Mg  Mg8       1.0  0.18626  0.24039  0.66130  1.0000
