data_image0
_chemical_formula_structural       C6H4C4H8C6NCHC4NCH3C4H2C2H2C6NCHC4NC3H3CN2C4H2C4H2C6H4C2H4C6NC3HC4NC3H3C4H2C4H6C4NCHC4NCH3CN2C4H2C4H2C4H6C4H2C6NCHC4NC3H3C2H4C6H4C4NCHC2NC3H3CN2C4H2C4H2C4H6C8H4C4NCHC2NC3H3C2H4C2H2C4NCHC2NC3H3CN2C4H2C4H2N2CuN2CuN2CuN2CuC2Sn2C2HTe2HMgC2Sn2C2HTe2HMgC2Sn2C2HTe2HMgC2Sn2C2HTe2HMgC2Sn2C2HTe2HMgC2Sn2C2HTe2HMgC2Sn2C2HTe2HMgC2Sn2C2HTe2HMgC2Sn2C2HTe2HMgC2Sn2C2HTe2HMgC2Sn2C2HTe2HMgC2Sn2C2HTe2HMgC2Sn2C2HTe2HMgC2Sn2C2HTe2HMgC2Sn2C2HTe2HMgC2Sn2C2HTe2HMg
_chemical_formula_sum              "C260 H144 N32 Cu4 Sn32 Te32 Mg16"
_cell_length_a       44.3319
_cell_length_b       23.2738
_cell_length_c       21.1911
_cell_angle_alpha    89.2834
_cell_angle_beta     90.096
_cell_angle_gamma    90.2398

_symmetry_space_group_name_H-M    'P1'
_space_group_IT_number       1

loop_
  _space_group_symop_operation_xyz
  'x, y, z'

loop_
  _atom_site_type_symbol
  _atom_site_label
  _atom_site_symmetry_multiplicity
  _atom_site_fract_x
  _atom_site_fract_y
  _atom_site_fract_z
  _atom_site_occupancy
  C   C1        1.0  0.41962  0.57381  0.69712  1.0000
  C   C2        1.0  0.39635  0.57366  0.74140  1.0000
  C   C3        1.0  0.07864  0.65334  0.48222  1.0000
  C   C4        1.0  0.10054  0.61084  0.48273  1.0000
  C   C5        1.0  0.18313  0.46607  0.43404  1.0000
  C   C6        1.0  0.20537  0.42397  0.43348  1.0000
  H   H1        1.0  0.90076  0.72344  0.61368  1.0000
  H   H2        1.0  0.86121  0.64759  0.61505  1.0000
  H   H3        1.0  0.82166  0.48174  0.59134  1.0000
  H   H4        1.0  0.78264  0.40636  0.59004  1.0000
  C   C7        1.0  0.39693  0.34191  0.15024  1.0000
  C   C8        1.0  0.37425  0.34124  0.19545  1.0000
  C   C9        1.0  0.18558  0.77796  0.92714  1.0000
  C   C10       1.0  0.20770  0.73555  0.92698  1.0000
  H   H5        1.0  0.56222  0.45853  0.20072  1.0000
  H   H6        1.0  0.60373  0.45978  0.28002  1.0000
  H   H7        1.0  0.70114  0.43880  0.33284  1.0000
  H   H8        1.0  0.74076  0.43789  0.41501  1.0000
  H   H9        1.0  0.90230  0.03348  0.11052  1.0000
  H   H10       1.0  0.86262  0.95749  0.11366  1.0000
  H   H11       1.0  0.82732  0.78295  0.08891  1.0000
  H   H12       1.0  0.78997  0.70451  0.08814  1.0000
  C   C11       1.0  0.35154  0.37997  0.68251  1.0000
  C   C12       1.0  0.14739  0.43673  0.03251  1.0000
  C   C13       1.0  0.43652  0.61276  0.53890  1.0000
  C   C14       1.0  0.44569  0.61724  0.60209  1.0000
  C   C15       1.0  0.42162  0.61750  0.65096  1.0000
  C   C16       1.0  0.37455  0.61742  0.74102  1.0000
  N   N1        1.0  0.33054  0.65701  0.79040  1.0000
  C   C17       1.0  0.59481  0.59680  0.51820  1.0000
  H   H13       1.0  0.61321  0.58891  0.42217  1.0000
  C   C18       1.0  0.97573  0.27801  0.01851  1.0000
  C   C19       1.0  0.98533  0.33709  0.02349  1.0000
  C   C20       1.0  0.92191  0.30584  0.01698  1.0000
  C   C21       1.0  0.87712  0.39180  0.01873  1.0000
  N   N2        1.0  0.85120  0.47492  0.97738  1.0000
  C   C22       1.0  0.05559  0.26026  0.02599  1.0000
  H   H14       1.0  0.97033  0.37351  0.02594  1.0000
  H   H15       1.0  0.35409  0.41167  0.64385  1.0000
  H   H16       1.0  0.16154  0.43636  0.07526  1.0000
  C   C23       1.0  0.39753  0.66490  0.32477  1.0000
  C   C24       1.0  0.37506  0.66634  0.27895  1.0000
  C   C25       1.0  0.10093  0.99697  0.57692  1.0000
  C   C26       1.0  0.12313  0.03963  0.57767  1.0000
  H   H17       1.0  0.82131  0.20766  0.38683  1.0000
  H   H18       1.0  0.78194  0.28315  0.38685  1.0000
  C   C27       1.0  0.18635  0.53744  0.04622  1.0000
  C   C28       1.0  0.20804  0.58090  0.04381  1.0000
  H   H19       1.0  0.93519  0.34402  0.92784  1.0000
  H   H20       1.0  0.89561  0.42006  0.92979  1.0000
  C   C29       1.0  0.35060  0.38253  0.29242  1.0000
  C   C30       1.0  0.14698  0.87397  0.02683  1.0000
  C   C31       1.0  0.43622  0.61509  0.43464  1.0000
  C   C32       1.0  0.44503  0.62257  0.37143  1.0000
  C   C33       1.0  0.42117  0.62454  0.32213  1.0000
  C   C34       1.0  0.37552  0.62747  0.22850  1.0000
  N   N3        1.0  0.32958  0.66193  0.18016  1.0000
  C   C35       1.0  0.59459  0.59724  0.45372  1.0000
  H   H21       1.0  0.61356  0.58803  0.54963  1.0000
  C   C36       1.0  0.97535  0.03309  0.02432  1.0000
  C   C37       1.0  0.98470  0.97399  0.03155  1.0000
  C   C38       1.0  0.92137  0.00519  0.02288  1.0000
  C   C39       1.0  0.87631  0.91908  0.02599  1.0000
  N   N4        1.0  0.84857  0.83949  0.98322  1.0000
  C   C40       1.0  0.82649  0.79648  0.98751  1.0000
  C   C41       1.0  0.78285  0.70667  0.98740  1.0000
  C   C42       1.0  0.05551  0.05033  0.02685  1.0000
  H   H22       1.0  0.96957  0.93761  0.03667  1.0000
  H   H23       1.0  0.35321  0.41546  0.32890  1.0000
  H   H24       1.0  0.16159  0.87261  0.06892  1.0000
  C   C43       1.0  0.76171  0.65385  0.98802  1.0000
  N   N5        1.0  0.95473  0.15547  0.01939  1.0000
  N   N6        1.0  0.45499  0.61866  0.48667  1.0000
  C   C44       1.0  0.47592  0.62203  0.62119  1.0000
  C   C45       1.0  0.48560  0.63137  0.68534  1.0000
  C   C46       1.0  0.47526  0.62786  0.35245  1.0000
  C   C47       1.0  0.48479  0.64078  0.28876  1.0000
  H   H25       1.0  0.46973  0.65057  0.24988  1.0000
  H   H26       1.0  0.47063  0.63784  0.72491  1.0000
  C   C48       1.0  0.06342  0.79662  0.52641  1.0000
  C   C49       1.0  0.09461  0.81375  0.51987  1.0000
  C   C50       1.0  0.06449  0.89157  0.52440  1.0000
  C   C51       1.0  0.09525  0.87243  0.51839  1.0000
  H   H27       1.0  0.11339  0.78449  0.51560  1.0000
  H   H28       1.0  0.11459  0.90065  0.51312  1.0000
  C   C52       1.0  0.57943  0.42530  0.20072  1.0000
  C   C53       1.0  0.60273  0.42594  0.24504  1.0000
  C   C54       1.0  0.70740  0.39854  0.35589  1.0000
  C   C55       1.0  0.72996  0.39775  0.40185  1.0000
  C   C56       1.0  0.91959  0.34644  0.96731  1.0000
  C   C57       1.0  0.89759  0.38877  0.96811  1.0000
  H   H29       1.0  0.39743  0.30926  0.11394  1.0000
  H   H30       1.0  0.35669  0.30847  0.19513  1.0000
  H   H31       1.0  0.17939  0.52004  0.09183  1.0000
  H   H32       1.0  0.21786  0.59643  0.08751  1.0000
  C   C58       1.0  0.81374  0.22605  0.43095  1.0000
  C   C59       1.0  0.79169  0.26851  0.43135  1.0000
  H   H33       1.0  0.43625  0.53952  0.69730  1.0000
  H   H34       1.0  0.39488  0.53911  0.77643  1.0000
  H   H35       1.0  0.09911  0.96615  0.61578  1.0000
  H   H36       1.0  0.13879  0.04193  0.61724  1.0000
  C   C60       1.0  0.64936  0.61910  0.18304  1.0000
  C   C61       1.0  0.85100  0.56741  0.52739  1.0000
  C   C62       1.0  0.56379  0.38724  0.04210  1.0000
  C   C63       1.0  0.55433  0.38267  0.10517  1.0000
  C   C64       1.0  0.57808  0.38239  0.15472  1.0000
  C   C65       1.0  0.62513  0.38334  0.24479  1.0000
  N   N7        1.0  0.66976  0.34460  0.29322  1.0000
  C   C66       1.0  0.69298  0.34731  0.33798  1.0000
  C   C67       1.0  0.73893  0.34622  0.43123  1.0000
  C   C68       1.0  0.40506  0.39922  0.01776  1.0000
  H   H37       1.0  0.38657  0.40500  0.92146  1.0000
  C   C69       1.0  0.02308  0.72276  0.53074  1.0000
  C   C70       1.0  0.01279  0.66393  0.53574  1.0000
  C   C71       1.0  0.07675  0.69330  0.53150  1.0000
  C   C72       1.0  0.12155  0.60707  0.53256  1.0000
  N   N8        1.0  0.14875  0.52791  0.48805  1.0000
  C   C73       1.0  0.17157  0.48647  0.49134  1.0000
  C   C74       1.0  0.21671  0.40026  0.48990  1.0000
  C   C75       1.0  0.94333  0.74329  0.52377  1.0000
  H   H38       1.0  0.02733  0.62684  0.54024  1.0000
  H   H39       1.0  0.64708  0.58659  0.14601  1.0000
  H   H40       1.0  0.83518  0.56893  0.56729  1.0000
  C   C76       1.0  0.90064  0.00223  0.07289  1.0000
  C   C77       1.0  0.87846  0.95962  0.07448  1.0000
  C   C78       1.0  0.81726  0.76986  0.04443  1.0000
  C   C79       1.0  0.79613  0.72545  0.04384  1.0000
  H   H41       1.0  0.17830  0.79846  0.88332  1.0000
  H   H42       1.0  0.21764  0.72297  0.88237  1.0000
  C   C80       1.0  0.89868  0.69413  0.57434  1.0000
  C   C81       1.0  0.87645  0.65156  0.57495  1.0000
  C   C82       1.0  0.81423  0.46452  0.54639  1.0000
  C   C83       1.0  0.79231  0.42138  0.54562  1.0000
  H   H43       1.0  0.39735  0.69555  0.36311  1.0000
  H   H44       1.0  0.35688  0.69755  0.28056  1.0000
  H   H45       1.0  0.06278  0.65668  0.44312  1.0000
  H   H46       1.0  0.10222  0.58035  0.44444  1.0000
  H   H47       1.0  0.17437  0.48424  0.39020  1.0000
  H   H48       1.0  0.21388  0.40890  0.38855  1.0000
  C   C84       1.0  0.64931  0.61313  0.79229  1.0000
  C   C85       1.0  0.85257  0.12603  0.52813  1.0000
  C   C86       1.0  0.56434  0.38621  0.93784  1.0000
  C   C87       1.0  0.55554  0.37983  0.87465  1.0000
  N   N9        1.0  0.66992  0.34310  0.68343  1.0000
  C   C88       1.0  0.40535  0.39832  0.95334  1.0000
  H   H49       1.0  0.38609  0.40652  0.04870  1.0000
  C   C89       1.0  0.02594  0.96809  0.52871  1.0000
  C   C90       1.0  0.01709  0.02734  0.53544  1.0000
  C   C91       1.0  0.08019  0.99400  0.52680  1.0000
  C   C92       1.0  0.12522  0.08042  0.52827  1.0000
  N   N10       1.0  0.15056  0.16414  0.48641  1.0000
  C   C93       1.0  0.94574  0.95325  0.52453  1.0000
  H   H50       1.0  0.03255  0.06314  0.54041  1.0000
  H   H51       1.0  0.64782  0.57843  0.82801  1.0000
  H   H52       1.0  0.83747  0.12409  0.56930  1.0000
  C   C94       1.0  0.23829  0.34856  0.48975  1.0000
  N   N11       1.0  0.04522  0.84474  0.52808  1.0000
  N   N12       1.0  0.54542  0.38259  0.98960  1.0000
  C   C95       1.0  0.52404  0.37807  0.12357  1.0000
  C   C96       1.0  0.51414  0.36829  0.18767  1.0000
  C   C97       1.0  0.52542  0.37349  0.85532  1.0000
  C   C98       1.0  0.51629  0.36043  0.79173  1.0000
  H   H53       1.0  0.53164  0.35135  0.75354  1.0000
  H   H54       1.0  0.52896  0.36079  0.22758  1.0000
  C   C99       1.0  0.93613  0.20294  0.01568  1.0000
  C   C100      1.0  0.90508  0.18493  0.01032  1.0000
  C   C101      1.0  0.93586  0.10805  0.01761  1.0000
  C   C102      1.0  0.90488  0.12627  0.01137  1.0000
  H   H55       1.0  0.88609  0.21373  0.00562  1.0000
  H   H56       1.0  0.88562  0.09782  0.00756  1.0000
  C   C103      1.0  0.41926  0.42566  0.19834  1.0000
  C   C104      1.0  0.39656  0.42496  0.24385  1.0000
  C   C105      1.0  0.18160  0.54291  0.93270  1.0000
  C   C106      1.0  0.20321  0.58642  0.93075  1.0000
  H   H57       1.0  0.59899  0.30535  0.12059  1.0000
  H   H58       1.0  0.64047  0.30614  0.20091  1.0000
  H   H59       1.0  0.69179  0.25560  0.35117  1.0000
  H   H60       1.0  0.73101  0.25471  0.43510  1.0000
  H   H61       1.0  0.90384  0.27896  0.10707  1.0000
  H   H62       1.0  0.86434  0.35431  0.10872  1.0000
  C   C107      1.0  0.39980  0.66146  0.65090  1.0000
  C   C108      1.0  0.37668  0.66155  0.69510  1.0000
  C   C109      1.0  0.08265  0.03436  0.47685  1.0000
  C   C110      1.0  0.10474  0.07687  0.47753  1.0000
  H   H63       1.0  0.82875  0.21889  0.58847  1.0000
  H   H64       1.0  0.79007  0.29460  0.58860  1.0000
  C   C111      1.0  0.35235  0.62754  0.17942  1.0000
  C   C112      1.0  0.14566  0.56451  0.53289  1.0000
  C   C113      1.0  0.43554  0.38892  0.03868  1.0000
  C   C114      1.0  0.44412  0.38409  0.10230  1.0000
  C   C115      1.0  0.41992  0.38402  0.15086  1.0000
  C   C116      1.0  0.37377  0.38268  0.24333  1.0000
  N   N13       1.0  0.32881  0.34551  0.29372  1.0000
  C   C117      1.0  0.59468  0.39618  0.02277  1.0000
  H   H65       1.0  0.61414  0.40158  0.92724  1.0000
  C   C118      1.0  0.97329  0.72459  0.52793  1.0000
  C   C119      1.0  0.98201  0.66511  0.53381  1.0000
  C   C120      1.0  0.91894  0.69903  0.52364  1.0000
  C   C121      1.0  0.87384  0.61276  0.52484  1.0000
  N   N14       1.0  0.84928  0.52816  0.48494  1.0000
  C   C122      1.0  0.82734  0.48470  0.48971  1.0000
  C   C123      1.0  0.78271  0.39666  0.48883  1.0000
  C   C124      1.0  0.05353  0.73928  0.52976  1.0000
  H   H66       1.0  0.96654  0.62912  0.53650  1.0000
  H   H67       1.0  0.35571  0.59669  0.14112  1.0000
  H   H68       1.0  0.16140  0.56633  0.57310  1.0000
  C   C125      1.0  0.18133  0.76796  0.04036  1.0000
  C   C126      1.0  0.20327  0.72537  0.03967  1.0000
  H   H69       1.0  0.93546  0.96635  0.93585  1.0000
  H   H70       1.0  0.89534  0.89032  0.93872  1.0000
  H   H71       1.0  0.82193  0.79572  0.88662  1.0000
  H   H72       1.0  0.78326  0.71824  0.88616  1.0000
  C   C127      1.0  0.42153  0.58585  0.27165  1.0000
  C   C128      1.0  0.39912  0.58738  0.22550  1.0000
  C   C129      1.0  0.09735  0.68890  0.58179  1.0000
  C   C130      1.0  0.11942  0.64638  0.58226  1.0000
  C   C131      1.0  0.18261  0.46221  0.54808  1.0000
  C   C132      1.0  0.20463  0.41979  0.54699  1.0000
  H   H73       1.0  0.93112  0.66522  0.43301  1.0000
  H   H74       1.0  0.89121  0.58924  0.43398  1.0000
  H   H75       1.0  0.82958  0.47227  0.38975  1.0000
  H   H76       1.0  0.79079  0.39482  0.38852  1.0000
  C   C133      1.0  0.35045  0.61670  0.78810  1.0000
  C   C134      1.0  0.14835  0.12527  0.53024  1.0000
  C   C135      1.0  0.43604  0.38723  0.93446  1.0000
  C   C136      1.0  0.44535  0.37996  0.87174  1.0000
  N   N15       1.0  0.32906  0.34455  0.68506  1.0000
  C   C137      1.0  0.59500  0.39571  0.95831  1.0000
  H   H77       1.0  0.61350  0.40235  0.05457  1.0000
  C   C138      1.0  0.97612  0.96976  0.52833  1.0000
  C   C139      1.0  0.98629  0.02831  0.53543  1.0000
  N   N16       1.0  0.84894  0.16329  0.48309  1.0000
  C   C140      1.0  0.82674  0.20571  0.48754  1.0000
  C   C141      1.0  0.78215  0.29323  0.48803  1.0000
  C   C142      1.0  0.05597  0.94949  0.52650  1.0000
  H   H78       1.0  0.97167  0.06509  0.54037  1.0000
  H   H79       1.0  0.35077  0.58045  0.82200  1.0000
  H   H80       1.0  0.16387  0.12352  0.57087  1.0000
  C   C143      1.0  0.76069  0.34527  0.48811  1.0000
  N   N17       1.0  0.95420  0.84794  0.52422  1.0000
  N   N18       1.0  0.45438  0.38317  0.98720  1.0000
  C   C144      1.0  0.47421  0.37883  0.12221  1.0000
  C   C145      1.0  0.48332  0.36878  0.18679  1.0000
  C   C146      1.0  0.47560  0.37331  0.85383  1.0000
  C   C147      1.0  0.48548  0.36023  0.79079  1.0000
  H   H81       1.0  0.47073  0.35107  0.75142  1.0000
  H   H82       1.0  0.46792  0.36193  0.22576  1.0000
  C   C148      1.0  0.06480  0.20275  0.02728  1.0000
  C   C149      1.0  0.09595  0.18492  0.02698  1.0000
  C   C150      1.0  0.06482  0.10793  0.02709  1.0000
  C   C151      1.0  0.09596  0.12626  0.02664  1.0000
  H   H83       1.0  0.11513  0.21382  0.02609  1.0000
  H   H84       1.0  0.11514  0.09764  0.02554  1.0000
  C   C152      1.0  0.91588  0.66087  0.47294  1.0000
  C   C153      1.0  0.89369  0.61853  0.47327  1.0000
  C   C154      1.0  0.81870  0.45808  0.43317  1.0000
  C   C155      1.0  0.79687  0.41500  0.43282  1.0000
  H   H85       1.0  0.40144  0.69572  0.61565  1.0000
  H   H86       1.0  0.35988  0.69549  0.69562  1.0000
  H   H87       1.0  0.09579  0.71891  0.62060  1.0000
  H   H88       1.0  0.13528  0.64351  0.62148  1.0000
  H   H89       1.0  0.17328  0.47558  0.59302  1.0000
  H   H90       1.0  0.21243  0.40095  0.59128  1.0000
  C   C156      1.0  0.60032  0.33926  0.15534  1.0000
  C   C157      1.0  0.62340  0.33958  0.19962  1.0000
  C   C158      1.0  0.70261  0.29528  0.36580  1.0000
  C   C159      1.0  0.72468  0.29511  0.41247  1.0000
  C   C160      1.0  0.91942  0.96412  0.97466  1.0000
  C   C161      1.0  0.89723  0.92179  0.97606  1.0000
  C   C162      1.0  0.81417  0.77625  0.93066  1.0000
  C   C163      1.0  0.79254  0.73264  0.93079  1.0000
  H   H91       1.0  0.43662  0.45886  0.19893  1.0000
  H   H92       1.0  0.39636  0.45766  0.28016  1.0000
  H   H93       1.0  0.17049  0.77887  0.08461  1.0000
  H   H94       1.0  0.20951  0.70388  0.08365  1.0000
  C   C164      1.0  0.64788  0.37923  0.68260  1.0000
  C   C165      1.0  0.85350  0.43520  0.02022  1.0000
  C   C166      1.0  0.56452  0.60938  0.53839  1.0000
  C   C167      1.0  0.55584  0.61510  0.60168  1.0000
  N   N19       1.0  0.66984  0.65262  0.79421  1.0000
  C   C168      1.0  0.40582  0.60248  0.51915  1.0000
  H   H95       1.0  0.38673  0.59733  0.42326  1.0000
  C   C169      1.0  0.02545  0.27785  0.02277  1.0000
  C   C170      1.0  0.01608  0.33705  0.02594  1.0000
  N   N20       1.0  0.15104  0.47358  0.98703  1.0000
  C   C171      1.0  0.17306  0.51689  0.99035  1.0000
  C   C172      1.0  0.21728  0.60552  0.98611  1.0000
  C   C173      1.0  0.94547  0.26054  0.01643  1.0000
  H   H96       1.0  0.03116  0.37341  0.03086  1.0000
  H   H97       1.0  0.64519  0.41169  0.64475  1.0000
  H   H98       1.0  0.83746  0.43164  0.05971  1.0000
  C   C174      1.0  0.81779  0.23141  0.54444  1.0000
  C   C175      1.0  0.79606  0.27449  0.54427  1.0000
  H   H99       1.0  0.43948  0.55422  0.26950  1.0000
  H   H100      1.0  0.39955  0.55703  0.18679  1.0000
  H   H101      1.0  0.06696  0.03169  0.43741  1.0000
  H   H102      1.0  0.10674  0.10827  0.43930  1.0000
  C   C176      1.0  0.90176  0.30937  0.06789  1.0000
  C   C177      1.0  0.87962  0.35168  0.06867  1.0000
  H   H103      1.0  0.17079  0.52791  0.88980  1.0000
  H   H104      1.0  0.20920  0.60630  0.88574  1.0000
  C   C178      1.0  0.64950  0.38427  0.29128  1.0000
  C   C179      1.0  0.85241  0.87574  0.02822  1.0000
  C   C180      1.0  0.56417  0.61035  0.43407  1.0000
  C   C181      1.0  0.55516  0.61794  0.37092  1.0000
  N   N21       1.0  0.67156  0.65517  0.18397  1.0000
  C   C182      1.0  0.40566  0.60386  0.45468  1.0000
  H   H105      1.0  0.38706  0.59454  0.55073  1.0000
  C   C183      1.0  0.02519  0.03294  0.02595  1.0000
  C   C184      1.0  0.01550  0.97388  0.03198  1.0000
  N   N22       1.0  0.15056  0.83921  0.98039  1.0000
  C   C185      1.0  0.17247  0.79598  0.98395  1.0000
  C   C186      1.0  0.21732  0.70893  0.98328  1.0000
  C   C187      1.0  0.94510  0.05054  0.02131  1.0000
  H   H106      1.0  0.03051  0.93756  0.03746  1.0000
  H   H107      1.0  0.64925  0.41972  0.32519  1.0000
  H   H108      1.0  0.83763  0.87671  0.06990  1.0000
  C   C188      1.0  0.23902  0.65730  0.98368  1.0000
  N   N23       1.0  0.04599  0.15521  0.02714  1.0000
  N   N24       1.0  0.54585  0.61587  0.48641  1.0000
  C   C189      1.0  0.52577  0.62145  0.62095  1.0000
  C   C190      1.0  0.51644  0.63119  0.68517  1.0000
  C   C191      1.0  0.52506  0.62563  0.35210  1.0000
  C   C192      1.0  0.51559  0.63936  0.28851  1.0000
  H   H109      1.0  0.53062  0.64778  0.24927  1.0000
  H   H110      1.0  0.53161  0.63778  0.72455  1.0000
  C   C193      1.0  0.93498  0.80119  0.51987  1.0000
  C   C194      1.0  0.90440  0.82036  0.51047  1.0000
  C   C195      1.0  0.93605  0.89601  0.51999  1.0000
  C   C196      1.0  0.90506  0.87902  0.51042  1.0000
  H   H111      1.0  0.88525  0.79211  0.50368  1.0000
  H   H112      1.0  0.88649  0.90844  0.50346  1.0000
  N   N25       1.0  0.50017  0.62042  0.39103  1.0000
  N   N26       1.0  0.50074  0.61755  0.58211  1.0000
  Cu  Cu1       1.0  0.49985  0.38216  0.98847  1.0000
  N   N27       1.0  0.50030  0.37956  0.89316  1.0000
  N   N28       1.0  0.49935  0.38300  0.08383  1.0000
  Cu  Cu2       1.0  0.50050  0.61828  0.48662  1.0000
  N   N29       1.0  0.99865  0.75945  0.52683  1.0000
  N   N30       1.0  0.00063  0.93327  0.52538  1.0000
  Cu  Cu3       1.0  0.00040  0.15536  0.02118  1.0000
  N   N31       1.0  0.00053  0.24217  0.01847  1.0000
  N   N32       1.0  0.00038  0.06873  0.02179  1.0000
  Cu  Cu4       1.0  0.99963  0.84645  0.52625  1.0000
  C   C197      1.0  0.80032  0.56816  0.05130  1.0000
  C   C198      1.0  0.78765  0.59988  0.00158  1.0000
  C  Sn1       1.0  0.79628  0.57679  0.93925  1.0000
  C  Sn2       1.0  0.81723  0.53248  0.92660  1.0000
  C   C199      1.0  0.82976  0.50096  0.97667  1.0000
  C   C200      1.0  0.82097  0.52443  0.03887  1.0000
  H   H113      1.0  0.79411  0.57749  0.09943  1.0000
  O  Te1       1.0  0.78342  0.60891  0.89013  1.0000
  O  Te2       1.0  0.82547  0.51986  0.86474  1.0000
  H   H114      1.0  0.83077  0.49984  0.07736  1.0000
  Mg  Mg1       1.0  0.80180  0.57558  0.81380  1.0000
  C   C201      1.0  0.72020  0.71199  0.90026  1.0000
  C   C202      1.0  0.73449  0.66614  0.93106  1.0000
  C  Sn3       1.0  0.72878  0.60970  0.91262  1.0000
  C  Sn4       1.0  0.70838  0.59910  0.86238  1.0000
  C   C203      1.0  0.69422  0.64528  0.83184  1.0000
  C   C204      1.0  0.70009  0.70158  0.85069  1.0000
  H   H115      1.0  0.72476  0.75556  0.91481  1.0000
  O  Te3       1.0  0.74324  0.56439  0.94391  1.0000
  O  Te4       1.0  0.70227  0.54312  0.84298  1.0000
  H   H116      1.0  0.68904  0.73708  0.82681  1.0000
  Mg  Mg2       1.0  0.72754  0.49567  0.90028  1.0000
  C   C205      1.0  0.27715  0.40836  0.58005  1.0000
  C   C206      1.0  0.26382  0.36188  0.54939  1.0000
  C  Sn5       1.0  0.27107  0.30563  0.56730  1.0000
  C  Sn6       1.0  0.29206  0.29586  0.61686  1.0000
  C   C207      1.0  0.30526  0.34265  0.64727  1.0000
  C   C208      1.0  0.29785  0.39877  0.62896  1.0000
  H   H117      1.0  0.27141  0.45177  0.56591  1.0000
  O  Te5       1.0  0.25754  0.25968  0.53615  1.0000
  O  Te6       1.0  0.29970  0.24008  0.63573  1.0000
  H   H118      1.0  0.30817  0.43474  0.65273  1.0000
  Mg  Mg3       1.0  0.27526  0.19155  0.57889  1.0000
  C   C209      1.0  0.71345  0.71219  0.10887  1.0000
  C   C210      1.0  0.69688  0.66575  0.13314  1.0000
  C  Sn7       1.0  0.70337  0.60983  0.11435  1.0000
  C  Sn8       1.0  0.72690  0.60034  0.07045  1.0000
  C   C211      1.0  0.74337  0.64708  0.04647  1.0000
  C   C212      1.0  0.73668  0.70287  0.06558  1.0000
  H   H119      1.0  0.70829  0.75535  0.12368  1.0000
  O  Te7       1.0  0.68658  0.56393  0.13905  1.0000
  O  Te8       1.0  0.73387  0.54489  0.05088  1.0000
  H   H120      1.0  0.74953  0.73880  0.04681  1.0000
  Mg  Mg4       1.0  0.70459  0.49629  0.09789  1.0000
  C   C213      1.0  0.58109  0.57516  0.25547  1.0000
  C   C214      1.0  0.57888  0.60704  0.31070  1.0000
  C  Sn9       1.0  0.60040  0.64915  0.32431  1.0000
  C  Sn10      1.0  0.62455  0.65944  0.28172  1.0000
  C   C215      1.0  0.62654  0.62734  0.22657  1.0000
  C   C216      1.0  0.60489  0.58530  0.21343  1.0000
  H   H121      1.0  0.56433  0.54265  0.24528  1.0000
  O  Te9       1.0  0.59787  0.68059  0.37972  1.0000
  O  Te10      1.0  0.64636  0.70128  0.29415  1.0000
  H   H122      1.0  0.60659  0.56065  0.17064  1.0000
  Mg  Mg5       1.0  0.63317  0.73295  0.37584  1.0000
  C   C217      1.0  0.91577  0.05144  0.46775  1.0000
  C   C218      1.0  0.92327  0.01076  0.51417  1.0000
  C  Sn11      1.0  0.90568  0.00498  0.56854  1.0000
  C  Sn12      1.0  0.88012  0.04063  0.57645  1.0000
  C   C219      1.0  0.87279  0.08116  0.52971  1.0000
  C   C220      1.0  0.89055  0.08660  0.47550  1.0000
  H   H123      1.0  0.92950  0.05564  0.42579  1.0000
  O  Te11      1.0  0.91571  0.96413  0.61447  1.0000
  O  Te12      1.0  0.86214  0.03573  0.63032  1.0000
  H   H124      1.0  0.88472  0.11808  0.43954  1.0000
  Mg  Mg6       1.0  0.88420  0.97372  0.67963  1.0000
  C   C221      1.0  0.27447  0.59615  0.88850  1.0000
  C   C222      1.0  0.26352  0.64265  0.92255  1.0000
  C  Sn13      1.0  0.27387  0.69829  0.90931  1.0000
  C  Sn14      1.0  0.29558  0.70740  0.86105  1.0000
  C   C223      1.0  0.30638  0.66059  0.82722  1.0000
  C   C224      1.0  0.29587  0.60510  0.84087  1.0000
  H   H125      1.0  0.26634  0.55322  0.89903  1.0000
  O  Te13      1.0  0.26270  0.74426  0.94380  1.0000
  O  Te14      1.0  0.30630  0.76255  0.84682  1.0000
  H   H126      1.0  0.30434  0.56910  0.81447  1.0000
  Mg  Mg7       1.0  0.28425  0.81140  0.90694  1.0000
  C   C225      1.0  0.18744  0.24265  0.42435  1.0000
  C   C226      1.0  0.17517  0.21226  0.47555  1.0000
  C  Sn15      1.0  0.18277  0.22724  0.53723  1.0000
  C  Sn16      1.0  0.20303  0.27352  0.54768  1.0000
  C   C227      1.0  0.21517  0.30367  0.49614  1.0000
  C   C228      1.0  0.20742  0.28831  0.43462  1.0000
  H   H127      1.0  0.18143  0.23079  0.37675  1.0000
  O  Te15      1.0  0.17031  0.19642  0.58785  1.0000
  O  Te16      1.0  0.21100  0.28941  0.60884  1.0000
  H   H128      1.0  0.21690  0.31187  0.39499  1.0000
  Mg  Mg8       1.0  0.18809  0.23434  0.66243  1.0000
  C   C229      1.0  0.70747  0.40604  0.59720  1.0000
  C   C230      1.0  0.69348  0.36006  0.62870  1.0000
  C  Sn17      1.0  0.70313  0.30383  0.61875  1.0000
  C  Sn18      1.0  0.72724  0.29358  0.57647  1.0000
  C   C231      1.0  0.74111  0.33987  0.54522  1.0000
  C   C232      1.0  0.73126  0.39596  0.55551  1.0000
  H   H129      1.0  0.69986  0.44944  0.60518  1.0000
  O  Te17      1.0  0.68890  0.25840  0.65059  1.0000
  O  Te18      1.0  0.73735  0.23781  0.56567  1.0000
  H   H130      1.0  0.74211  0.43155  0.53115  1.0000
  Mg  Mg9       1.0  0.71075  0.19007  0.62018  1.0000
  C   C233      1.0  0.28958  0.28851  0.37555  1.0000
  C   C234      1.0  0.30222  0.33489  0.34228  1.0000
  C  Sn19      1.0  0.29458  0.39116  0.35772  1.0000
  C  Sn20      1.0  0.27392  0.40106  0.40743  1.0000
  C   C235      1.0  0.26142  0.35438  0.44046  1.0000
  C   C236      1.0  0.26921  0.29824  0.42460  1.0000
  H   H131      1.0  0.29562  0.24508  0.36331  1.0000
  O  Te19      1.0  0.30741  0.43700  0.32398  1.0000
  O  Te20      1.0  0.26590  0.45687  0.42387  1.0000
  H   H132      1.0  0.25944  0.26234  0.45040  1.0000
  Mg  Mg10      1.0  0.28940  0.50522  0.36399  1.0000
  C   C237      1.0  0.10406  0.98820  0.08835  1.0000
  C   C238      1.0  0.08255  0.00581  0.03970  1.0000
  C  Sn21      1.0  0.08502  0.96502  0.98263  1.0000
  C  Sn22      1.0  0.10422  0.91711  0.97425  1.0000
  C   C239      1.0  0.12266  0.91119  0.02323  1.0000
  C   C240      1.0  0.12299  0.94093  0.08014  1.0000
  H   H133      1.0  0.10211  0.01119  0.13239  1.0000
  O  Te21      1.0  0.06560  0.98320  0.93450  1.0000
  O  Te22      1.0  0.10416  0.88693  0.91770  1.0000
  H   H134      1.0  0.13793  0.92727  0.11781  1.0000
  Mg  Mg11      1.0  0.07372  0.92819  0.86608  1.0000
  C   C241      1.0  0.08703  0.35579  0.96779  1.0000
  C   C242      1.0  0.08010  0.32395  0.01236  1.0000
  C  Sn23      1.0  0.09560  0.32248  0.06982  1.0000
  C  Sn24      1.0  0.11764  0.36513  0.08276  1.0000
  C   C243      1.0  0.12362  0.40820  0.03787  1.0000
  C   C244      1.0  0.10876  0.39788  0.98052  1.0000
  H   H135      1.0  0.07492  0.35663  0.92343  1.0000
  O  Te23      1.0  0.08919  0.27899  0.11382  1.0000
  O  Te24      1.0  0.13346  0.36469  0.13982  1.0000
  H   H136      1.0  0.11351  0.43136  0.94604  1.0000
  Mg  Mg12      1.0  0.11672  0.29664  0.18476  1.0000
  C   C245      1.0  0.27482  0.71718  0.08032  1.0000
  C   C246      1.0  0.26459  0.67197  0.04303  1.0000
  C  Sn25      1.0  0.27518  0.61623  0.05367  1.0000
  C  Sn26      1.0  0.29641  0.60569  0.10261  1.0000
  C   C247      1.0  0.30649  0.65120  0.13968  1.0000
  C   C248      1.0  0.29574  0.70682  0.12860  1.0000
  H   H137      1.0  0.26649  0.76021  0.07177  1.0000
  O  Te25      1.0  0.26473  0.57156  0.01596  1.0000
  O  Te26      1.0  0.30736  0.55039  0.11428  1.0000
  H   H138      1.0  0.30365  0.74181  0.15751  1.0000
  Mg  Mg13      1.0  0.28634  0.50365  0.05019  1.0000
  C   C249      1.0  0.59547  0.56606  0.73907  1.0000
  C   C250      1.0  0.62140  0.60019  0.74284  1.0000
  C  Sn27      1.0  0.62603  0.64526  0.69973  1.0000
  C  Sn28      1.0  0.60425  0.65628  0.65202  1.0000
  C   C251      1.0  0.57836  0.62191  0.64867  1.0000
  C   C252      1.0  0.57396  0.57691  0.69204  1.0000
  H   H139      1.0  0.59205  0.53126  0.77264  1.0000
  O  Te27      1.0  0.65208  0.67892  0.70417  1.0000
  O  Te28      1.0  0.60830  0.70106  0.60834  1.0000
  H   H140      1.0  0.55387  0.55052  0.68912  1.0000
  Mg  Mg14      1.0  0.64745  0.73497  0.63374  1.0000
  C   C253      1.0  0.58273  0.42735  0.76182  1.0000
  C   C254      1.0  0.57769  0.38788  0.81095  1.0000
  C  Sn29      1.0  0.59795  0.34301  0.82185  1.0000
  C  Sn30      1.0  0.62372  0.33768  0.78279  1.0000
  C   C255      1.0  0.62858  0.37742  0.73379  1.0000
  C   C256      1.0  0.60815  0.42214  0.72328  1.0000
  H   H141      1.0  0.56693  0.46197  0.75370  1.0000
  O  Te29      1.0  0.59257  0.30393  0.87113  1.0000
  O  Te30      1.0  0.64435  0.29326  0.79266  1.0000
  H   H142      1.0  0.61207  0.45272  0.68526  1.0000
  Mg  Mg15      1.0  0.62719  0.25071  0.86579  1.0000
  C   C257      1.0  0.37850  0.33171  0.79444  1.0000
  C   C258      1.0  0.37394  0.37014  0.74416  1.0000
  C  Sn31      1.0  0.39511  0.41332  0.73121  1.0000
  C  Sn32      1.0  0.42131  0.41798  0.76936  1.0000
  C   C259      1.0  0.42568  0.37929  0.81952  1.0000
  C   C260      1.0  0.40435  0.33626  0.83208  1.0000
  H   H143      1.0  0.36200  0.29839  0.80413  1.0000
  O  Te31      1.0  0.39019  0.45137  0.68081  1.0000
  O  Te32      1.0  0.44284  0.46072  0.75745  1.0000
  H   H144      1.0  0.40789  0.30649  0.87098  1.0000
  Mg  Mg16      1.0  0.42604  0.50238  0.68341  1.0000
