data_image0
_chemical_formula_structural       C6H2C8H4C6NCHC2NCH3C4H2C4H2C4NC3HC4NCH3C2HNC4H2C4H2C2H8C2H4C4NC3HC4NC3H3C4H4C2H6C4NC3HC2NC3H3C2HNC4H2C4H2C8H2C4H2C6NC3HC2NCH3C4H4C6H2C4NCHC2NCH3C2HNC4H2C4H2C2H6C4H8C6NCHC4NC3H3C2H4C2H4C4NC3HC4NC3H3C2HNC4H2C4H2CHCHCHCHN4SnCSn2CSnTe4Mg2SnCSn2CSnTe4Mg2SnCSn2CSnTe4Mg2SnCSn2CSnTe4Mg2SnCSn2CSnTe4Mg2SnCSn2CSnTe4Mg2SnCSn2CSnTe4Mg2SnCSn2CSnTe4Mg2SnCSn2CSnTe4Mg2SnCSn2CSnTe4Mg2SnCSn2CSnTe4Mg2SnCSn2CSnTe4Mg2SnCSn2CSnTe4Mg2SnCSn2CSnTe4Mg2SnCSn2CSnTe4Mg2SnCSn2CSnTe4Mg2
_chemical_formula_sum              "C236 H120 N24 Sn64 Te64 Mg32"
_cell_length_a       44.4035
_cell_length_b       23.2369
_cell_length_c       21.3085
_cell_angle_alpha    89.789
_cell_angle_beta     90.1636
_cell_angle_gamma    90.1183

_symmetry_space_group_name_H-M    'P1'
_space_group_IT_number       1

loop_
  _space_group_symop_operation_xyz
  'x, y, z'

loop_
  _atom_site_type_symbol
  _atom_site_label
  _atom_site_symmetry_multiplicity
  _atom_site_fract_x
  _atom_site_fract_y
  _atom_site_fract_z
  _atom_site_occupancy
  C   C1        1.0  0.42156  0.57574  0.70243  1.0000
  C   C2        1.0  0.39880  0.57381  0.74725  1.0000
  C   C3        1.0  0.07851  0.65558  0.48872  1.0000
  C   C4        1.0  0.10122  0.61464  0.48713  1.0000
  C   C5        1.0  0.18224  0.46807  0.43317  1.0000
  C   C6        1.0  0.20450  0.42611  0.43202  1.0000
  H   H1        1.0  0.60702  0.67342  0.60664  1.0000
  H   H2        1.0  0.64683  0.67175  0.68974  1.0000
  C   C7        1.0  0.39550  0.35531  0.14612  1.0000
  C   C8        1.0  0.37341  0.35534  0.19204  1.0000
  C   C9        1.0  0.29671  0.30649  0.36039  1.0000
  C   C10       1.0  0.27474  0.30547  0.40674  1.0000
  C   C11       1.0  0.07697  0.94670  0.98294  1.0000
  C   C12       1.0  0.09934  0.90511  0.98072  1.0000
  C   C13       1.0  0.18281  0.76083  0.92810  1.0000
  C   C14       1.0  0.20560  0.71977  0.92828  1.0000
  H   H3        1.0  0.70289  0.44393  0.32986  1.0000
  H   H4        1.0  0.74194  0.44387  0.41234  1.0000
  H   H5        1.0  0.89950  0.02626  0.10727  1.0000
  H   H6        1.0  0.85963  0.95061  0.10945  1.0000
  C   C15       1.0  0.35280  0.38116  0.67950  1.0000
  C   C16       1.0  0.14861  0.42361  0.02749  1.0000
  C   C17       1.0  0.43339  0.60600  0.53670  1.0000
  C   C18       1.0  0.44253  0.61217  0.60057  1.0000
  C   C19       1.0  0.41878  0.61115  0.64896  1.0000
  C   C20       1.0  0.37308  0.60869  0.74074  1.0000
  N   N1        1.0  0.32768  0.64414  0.78750  1.0000
  C   C21       1.0  0.59411  0.58226  0.52304  1.0000
  H   H7        1.0  0.61243  0.56794  0.42816  1.0000
  C   C22       1.0  0.97555  0.27147  0.02583  1.0000
  C   C23       1.0  0.98466  0.32916  0.04402  1.0000
  N   N2        1.0  0.85206  0.46959  0.97822  1.0000
  C   C24       1.0  0.05503  0.25129  0.02813  1.0000
  H   H8        1.0  0.96975  0.36438  0.05541  1.0000
  H   H9        1.0  0.35652  0.41104  0.63999  1.0000
  H   H10       1.0  0.16566  0.41855  0.06471  1.0000
  C   C25       1.0  0.29343  0.70106  0.11294  1.0000
  C   C26       1.0  0.27147  0.69952  0.06615  1.0000
  C   C27       1.0  0.18310  0.24041  0.54015  1.0000
  C   C28       1.0  0.20483  0.28365  0.54026  1.0000
  H   H11       1.0  0.69399  0.55140  0.12840  1.0000
  H   H12       1.0  0.73203  0.55272  0.04397  1.0000
  C   C29       1.0  0.10252  0.29402  0.07250  1.0000
  C   C30       1.0  0.12469  0.33649  0.07242  1.0000
  C   C31       1.0  0.18514  0.52757  0.04477  1.0000
  C   C32       1.0  0.20701  0.57064  0.04325  1.0000
  H   H13       1.0  0.70081  0.26573  0.64617  1.0000
  H   H14       1.0  0.74046  0.26250  0.56445  1.0000
  C   C33       1.0  0.35167  0.39452  0.29092  1.0000
  C   C34       1.0  0.14698  0.86262  0.02366  1.0000
  C   C35       1.0  0.43425  0.60852  0.43444  1.0000
  C   C36       1.0  0.44420  0.61847  0.37156  1.0000
  N   N3        1.0  0.32918  0.65418  0.18134  1.0000
  C   C37       1.0  0.30714  0.65006  0.13428  1.0000
  C   C38       1.0  0.26123  0.64717  0.04100  1.0000
  C   C39       1.0  0.59469  0.58302  0.45869  1.0000
  H   H15       1.0  0.61128  0.56650  0.55492  1.0000
  C   C40       1.0  0.97494  0.01755  0.02907  1.0000
  C   C41       1.0  0.98358  0.95957  0.04721  1.0000
  C   C42       1.0  0.92079  0.99287  0.02437  1.0000
  C   C43       1.0  0.87506  0.90883  0.02506  1.0000
  N   N4        1.0  0.84716  0.83012  0.98046  1.0000
  C   C44       1.0  0.05449  0.03591  0.02880  1.0000
  H   H16       1.0  0.96827  0.92490  0.05899  1.0000
  H   H17       1.0  0.35393  0.42729  0.32780  1.0000
  H   H18       1.0  0.16433  0.86642  0.06047  1.0000
  C   C45       1.0  0.76033  0.64514  0.98957  1.0000
  C   C46       1.0  0.95380  0.14506  0.02790  1.0000
  H   H19       1.0  0.97675  0.14538  0.04465  1.0000
  N   N5        1.0  0.45103  0.62104  0.48657  1.0000
  C   C47       1.0  0.47269  0.61924  0.61991  1.0000
  C   C48       1.0  0.48288  0.63943  0.68135  1.0000
  C   C49       1.0  0.47467  0.62538  0.35445  1.0000
  C   C50       1.0  0.48591  0.64765  0.29459  1.0000
  H   H20       1.0  0.47176  0.66496  0.25759  1.0000
  H   H21       1.0  0.46801  0.65415  0.71818  1.0000
  C   C51       1.0  0.06492  0.80442  0.52713  1.0000
  C   C52       1.0  0.09519  0.82488  0.51140  1.0000
  C   C53       1.0  0.06474  0.90384  0.52509  1.0000
  C   C54       1.0  0.09505  0.88373  0.51010  1.0000
  H   H22       1.0  0.11404  0.79722  0.50049  1.0000
  H   H23       1.0  0.11370  0.91160  0.49778  1.0000
  C   C55       1.0  0.70884  0.40379  0.35318  1.0000
  C   C56       1.0  0.73106  0.40358  0.39967  1.0000
  H   H24       1.0  0.39427  0.32541  0.10703  1.0000
  H   H25       1.0  0.35457  0.32538  0.19032  1.0000
  H   H26       1.0  0.30648  0.26688  0.34271  1.0000
  H   H27       1.0  0.26747  0.26433  0.42593  1.0000
  H   H28       1.0  0.10292  0.25952  0.10717  1.0000
  H   H29       1.0  0.14257  0.33550  0.10751  1.0000
  H   H30       1.0  0.17688  0.51204  0.08977  1.0000
  H   H31       1.0  0.21572  0.58756  0.08721  1.0000
  C   C57       1.0  0.60462  0.64577  0.64761  1.0000
  C   C58       1.0  0.62686  0.64477  0.69352  1.0000
  H   H32       1.0  0.44159  0.54919  0.70755  1.0000
  H   H33       1.0  0.40088  0.54520  0.78766  1.0000
  H   H34       1.0  0.17255  0.22722  0.58396  1.0000
  H   H35       1.0  0.21120  0.30336  0.58457  1.0000
  C   C59       1.0  0.64977  0.61378  0.18659  1.0000
  C   C60       1.0  0.85141  0.57485  0.52466  1.0000
  C   C61       1.0  0.56612  0.39838  0.03844  1.0000
  C   C62       1.0  0.55658  0.39160  0.10212  1.0000
  N   N6        1.0  0.67211  0.34941  0.28900  1.0000
  C   C63       1.0  0.69458  0.35226  0.33529  1.0000
  C   C64       1.0  0.73943  0.35260  0.43039  1.0000
  C   C65       1.0  0.40443  0.41630  0.01779  1.0000
  H   H36       1.0  0.38630  0.42604  0.92177  1.0000
  C   C66       1.0  0.02528  0.72698  0.53359  1.0000
  C   C67       1.0  0.01595  0.66971  0.55315  1.0000
  C   C68       1.0  0.07958  0.70158  0.53181  1.0000
  C   C69       1.0  0.12556  0.61772  0.52958  1.0000
  N   N7        1.0  0.15025  0.53415  0.48799  1.0000
  C   C70       1.0  0.17310  0.49276  0.49021  1.0000
  C   C71       1.0  0.21832  0.40650  0.48747  1.0000
  C   C72       1.0  0.94576  0.74578  0.52463  1.0000
  H   H37       1.0  0.03069  0.63525  0.56825  1.0000
  H   H38       1.0  0.64561  0.58545  0.14618  1.0000
  H   H39       1.0  0.83296  0.58306  0.55784  1.0000
  C   C73       1.0  0.70712  0.30449  0.62065  1.0000
  C   C74       1.0  0.72949  0.30309  0.57493  1.0000
  C   C75       1.0  0.89863  0.99325  0.07125  1.0000
  C   C76       1.0  0.87635  0.95099  0.07220  1.0000
  H   H40       1.0  0.05862  0.94649  0.94898  1.0000
  H   H41       1.0  0.09903  0.87162  0.94516  1.0000
  H   H42       1.0  0.17395  0.77823  0.88438  1.0000
  H   H43       1.0  0.21448  0.70474  0.88379  1.0000
  C   C77       1.0  0.70404  0.59196  0.11356  1.0000
  C   C78       1.0  0.72576  0.59280  0.06657  1.0000
  H   H44       1.0  0.30076  0.74176  0.13292  1.0000
  H   H45       1.0  0.26192  0.73974  0.04921  1.0000
  H   H46       1.0  0.05978  0.65340  0.45580  1.0000
  H   H47       1.0  0.10088  0.57969  0.45325  1.0000
  H   H48       1.0  0.17165  0.48293  0.39002  1.0000
  H   H49       1.0  0.21096  0.40746  0.38736  1.0000
  C   C79       1.0  0.64715  0.60717  0.79546  1.0000
  C   C80       1.0  0.85228  0.13262  0.52676  1.0000
  C   C81       1.0  0.56615  0.39768  0.93608  1.0000
  C   C82       1.0  0.55643  0.38974  0.87281  1.0000
  N   N8        1.0  0.66958  0.35357  0.68082  1.0000
  C   C83       1.0  0.69171  0.35574  0.63419  1.0000
  C   C84       1.0  0.73818  0.35317  0.54277  1.0000
  C   C85       1.0  0.40432  0.41400  0.95350  1.0000
  H   H50       1.0  0.38653  0.43063  0.04835  1.0000
  C   C86       1.0  0.02526  0.98129  0.52907  1.0000
  C   C87       1.0  0.01612  0.03952  0.54469  1.0000
  N   N9        1.0  0.15115  0.17308  0.47949  1.0000
  C   C88       1.0  0.17355  0.21542  0.48326  1.0000
  C   C89       1.0  0.21827  0.30290  0.48434  1.0000
  C   C90       1.0  0.94593  0.96138  0.52281  1.0000
  H   H51       1.0  0.03098  0.07498  0.55625  1.0000
  H   H52       1.0  0.64491  0.57315  0.83126  1.0000
  H   H53       1.0  0.83645  0.12935  0.56631  1.0000
  C   C91       1.0  0.23996  0.35477  0.48539  1.0000
  C   C92       1.0  0.04670  0.85409  0.53577  1.0000
  H   H54       1.0  0.02366  0.85431  0.55164  1.0000
  N   N10       1.0  0.54867  0.38543  0.98740  1.0000
  C   C93       1.0  0.52628  0.38626  0.12071  1.0000
  C   C94       1.0  0.51552  0.36688  0.18211  1.0000
  C   C95       1.0  0.52608  0.38182  0.85469  1.0000
  C   C96       1.0  0.51568  0.35943  0.79422  1.0000
  H   H55       1.0  0.53038  0.34428  0.75736  1.0000
  H   H56       1.0  0.52991  0.35204  0.21999  1.0000
  C   C97       1.0  0.93577  0.19459  0.01630  1.0000
  C   C98       1.0  0.90561  0.17399  0.99963  1.0000
  C   C99       1.0  0.93579  0.09526  0.01820  1.0000
  C   C100      1.0  0.90563  0.11511  0.00085  1.0000
  H   H57       1.0  0.88688  0.20141  0.98661  1.0000
  H   H58       1.0  0.88698  0.08699  0.98906  1.0000
  C   C101      1.0  0.42198  0.43178  0.20057  1.0000
  C   C102      1.0  0.39931  0.43301  0.24567  1.0000
  C   C103      1.0  0.29468  0.41049  0.35870  1.0000
  C   C104      1.0  0.27201  0.40886  0.40385  1.0000
  C   C105      1.0  0.07827  0.34108  0.98400  1.0000
  C   C106      1.0  0.10087  0.38250  0.98279  1.0000
  C   C107      1.0  0.18294  0.52940  0.93145  1.0000
  C   C108      1.0  0.20492  0.57212  0.93049  1.0000
  H   H59       1.0  0.69312  0.26056  0.34986  1.0000
  H   H60       1.0  0.73089  0.26122  0.43578  1.0000
  C   C109      1.0  0.39284  0.64573  0.64238  1.0000
  C   C110      1.0  0.37059  0.64511  0.68797  1.0000
  C   C111      1.0  0.18591  0.23641  0.42694  1.0000
  C   C112      1.0  0.20810  0.27886  0.42775  1.0000
  H   H61       1.0  0.55515  0.55026  0.71201  1.0000
  H   H62       1.0  0.59582  0.54526  0.79232  1.0000
  C   C113      1.0  0.35283  0.62202  0.17883  1.0000
  C   C114      1.0  0.14984  0.57542  0.52840  1.0000
  C   C115      1.0  0.43414  0.39735  0.03754  1.0000
  C   C116      1.0  0.44393  0.39274  0.10104  1.0000
  C   C117      1.0  0.42032  0.39324  0.14989  1.0000
  C   C118      1.0  0.37489  0.39439  0.24238  1.0000
  N   N11       1.0  0.33014  0.35708  0.29098  1.0000
  C   C119      1.0  0.30763  0.35917  0.33676  1.0000
  C   C120      1.0  0.26167  0.35653  0.42899  1.0000
  C   C121      1.0  0.59555  0.41942  0.01938  1.0000
  H   H63       1.0  0.61328  0.43331  0.92384  1.0000
  C   C122      1.0  0.97618  0.72664  0.53069  1.0000
  C   C123      1.0  0.98509  0.66955  0.55157  1.0000
  N   N12       1.0  0.85119  0.53120  0.48731  1.0000
  C   C124      1.0  0.05583  0.74628  0.53111  1.0000
  H   H64       1.0  0.97006  0.63488  0.56499  1.0000
  H   H65       1.0  0.35722  0.59353  0.13873  1.0000
  H   H66       1.0  0.16808  0.58138  0.56293  1.0000
  C   C125      1.0  0.10174  0.99156  0.07195  1.0000
  C   C126      1.0  0.12383  0.94913  0.07060  1.0000
  C   C127      1.0  0.18149  0.75760  0.04145  1.0000
  C   C128      1.0  0.20395  0.71588  0.04106  1.0000
  H   H67       1.0  0.68953  0.44693  0.61296  1.0000
  H   H68       1.0  0.72933  0.44402  0.53287  1.0000
  H   H69       1.0  0.93733  0.94964  0.94208  1.0000
  H   H70       1.0  0.89592  0.87607  0.94159  1.0000
  C   C129      1.0  0.29715  0.59740  0.10902  1.0000
  C   C130      1.0  0.27455  0.59629  0.06343  1.0000
  C   C131      1.0  0.10383  0.70434  0.57442  1.0000
  C   C132      1.0  0.12634  0.66265  0.57370  1.0000
  C   C133      1.0  0.18638  0.47239  0.54611  1.0000
  C   C134      1.0  0.20848  0.42988  0.54452  1.0000
  H   H71       1.0  0.70363  0.73431  0.14982  1.0000
  H   H72       1.0  0.74144  0.73584  0.06414  1.0000
  C   C135      1.0  0.34972  0.60799  0.78897  1.0000
  C   C136      1.0  0.14901  0.13469  0.52330  1.0000
  C   C137      1.0  0.43395  0.39365  0.93543  1.0000
  C   C138      1.0  0.44378  0.38501  0.87241  1.0000
  N   N13       1.0  0.32974  0.34728  0.68177  1.0000
  C   C139      1.0  0.59553  0.41904  0.95501  1.0000
  H   H73       1.0  0.61336  0.43382  0.05048  1.0000
  C   C140      1.0  0.97625  0.98119  0.52757  1.0000
  C   C141      1.0  0.98527  0.03943  0.54398  1.0000
  N   N14       1.0  0.84955  0.17142  0.48359  1.0000
  C   C142      1.0  0.05565  0.96193  0.52692  1.0000
  H   H74       1.0  0.97036  0.07481  0.55489  1.0000
  H   H75       1.0  0.35249  0.57658  0.82737  1.0000
  H   H76       1.0  0.16551  0.13185  0.56184  1.0000
  C   C143      1.0  0.76069  0.35243  0.48779  1.0000
  C   C144      1.0  0.95495  0.85352  0.52985  1.0000
  H   H77       1.0  0.97776  0.85343  0.54743  1.0000
  N   N15       1.0  0.45164  0.38376  0.98690  1.0000
  C   C145      1.0  0.47430  0.38703  0.11991  1.0000
  C   C146      1.0  0.48469  0.36746  0.18164  1.0000
  C   C147      1.0  0.47413  0.37924  0.85457  1.0000
  C   C148      1.0  0.48488  0.35778  0.79423  1.0000
  H   H78       1.0  0.47050  0.34092  0.75745  1.0000
  H   H79       1.0  0.46994  0.35328  0.21908  1.0000
  C   C149      1.0  0.06403  0.19314  0.02561  1.0000
  C   C150      1.0  0.09443  0.17274  0.01132  1.0000
  C   C151      1.0  0.06383  0.09383  0.02604  1.0000
  C   C152      1.0  0.09429  0.11390  0.01153  1.0000
  H   H80       1.0  0.11336  0.20031  0.99997  1.0000
  H   H81       1.0  0.11305  0.08601  0.00052  1.0000
  C   C153      1.0  0.57530  0.57659  0.70715  1.0000
  C   C154      1.0  0.59809  0.57409  0.75219  1.0000
  H   H82       1.0  0.39092  0.67369  0.60150  1.0000
  H   H83       1.0  0.35080  0.67247  0.68434  1.0000
  H   H84       1.0  0.10454  0.73898  0.60858  1.0000
  H   H85       1.0  0.14478  0.66449  0.60750  1.0000
  H   H86       1.0  0.17864  0.48893  0.59094  1.0000
  H   H87       1.0  0.21795  0.41413  0.58843  1.0000
  C   C155      1.0  0.70374  0.30061  0.36431  1.0000
  C   C156      1.0  0.72511  0.30127  0.41209  1.0000
  C   C157      1.0  0.92001  0.94974  0.97808  1.0000
  C   C158      1.0  0.89718  0.90882  0.97784  1.0000
  H   H88       1.0  0.44088  0.46157  0.20334  1.0000
  H   H89       1.0  0.40038  0.46419  0.28368  1.0000
  H   H90       1.0  0.30205  0.45158  0.33940  1.0000
  H   H91       1.0  0.26216  0.44903  0.41969  1.0000
  H   H92       1.0  0.10232  0.02509  0.10744  1.0000
  H   H93       1.0  0.14185  0.94931  0.10539  1.0000
  H   H94       1.0  0.17144  0.77076  0.08562  1.0000
  H   H95       1.0  0.21136  0.69704  0.08526  1.0000
  C   C159      1.0  0.64617  0.38639  0.67775  1.0000
  C   C160      1.0  0.85244  0.42603  0.01609  1.0000
  C   C161      1.0  0.56497  0.60509  0.54094  1.0000
  C   C162      1.0  0.55500  0.61226  0.60412  1.0000
  C   C163      1.0  0.57836  0.61182  0.65366  1.0000
  C   C164      1.0  0.62403  0.60855  0.74635  1.0000
  N   N16       1.0  0.66833  0.64528  0.79740  1.0000
  C   C165      1.0  0.40458  0.58322  0.51602  1.0000
  H   H96       1.0  0.38801  0.56940  0.41949  1.0000
  C   C166      1.0  0.02461  0.27085  0.02958  1.0000
  C   C167      1.0  0.01550  0.32880  0.04636  1.0000
  C   C168      1.0  0.07885  0.29594  0.02851  1.0000
  C   C169      1.0  0.12439  0.38094  0.02733  1.0000
  N   N17       1.0  0.15021  0.46388  0.98566  1.0000
  C   C170      1.0  0.17292  0.50567  0.98860  1.0000
  C   C171      1.0  0.21762  0.59332  0.98634  1.0000
  C   C172      1.0  0.94503  0.25258  0.02000  1.0000
  H   H97       1.0  0.03036  0.36369  0.05978  1.0000
  H   H98       1.0  0.64178  0.41489  0.63736  1.0000
  H   H99       1.0  0.83419  0.41841  0.04998  1.0000
  C   C173      1.0  0.70988  0.69484  0.12591  1.0000
  C   C174      1.0  0.73115  0.69530  0.07800  1.0000
  H   H100      1.0  0.30660  0.55730  0.12667  1.0000
  H   H101      1.0  0.26713  0.55504  0.04495  1.0000
  H   H102      1.0  0.17795  0.21850  0.38281  1.0000
  H   H103      1.0  0.21743  0.29403  0.38359  1.0000
  C   C175      1.0  0.70033  0.40624  0.60197  1.0000
  C   C176      1.0  0.72308  0.40459  0.55726  1.0000
  H   H104      1.0  0.06004  0.34208  0.94979  1.0000
  H   H105      1.0  0.10096  0.41668  0.94774  1.0000
  H   H106      1.0  0.17312  0.51329  0.88810  1.0000
  H   H107      1.0  0.21214  0.58959  0.88559  1.0000
  C   C177      1.0  0.65079  0.38710  0.28913  1.0000
  C   C178      1.0  0.85094  0.86606  0.02587  1.0000
  C   C179      1.0  0.56584  0.60606  0.43869  1.0000
  C   C180      1.0  0.55677  0.61449  0.37504  1.0000
  N   N18       1.0  0.67335  0.64630  0.19009  1.0000
  C   C181      1.0  0.69530  0.64342  0.14314  1.0000
  C   C182      1.0  0.73962  0.64439  0.04754  1.0000
  C   C183      1.0  0.40519  0.58450  0.45167  1.0000
  H   H108      1.0  0.38688  0.56675  0.54608  1.0000
  C   C184      1.0  0.02393  0.01695  0.03148  1.0000
  C   C185      1.0  0.01443  0.95910  0.04871  1.0000
  C   C186      1.0  0.07796  0.99083  0.02821  1.0000
  C   C187      1.0  0.12309  0.90567  0.02475  1.0000
  N   N19       1.0  0.14818  0.82314  0.98124  1.0000
  C   C188      1.0  0.17085  0.78146  0.98469  1.0000
  C   C189      1.0  0.21685  0.69682  0.98471  1.0000
  C   C190      1.0  0.94474  0.03729  0.02377  1.0000
  H   H109      1.0  0.02904  0.92374  0.06193  1.0000
  H   H110      1.0  0.64912  0.41980  0.32620  1.0000
  H   H111      1.0  0.83593  0.86667  0.06692  1.0000
  C   C191      1.0  0.23900  0.64575  0.98513  1.0000
  C   C192      1.0  0.04574  0.14362  0.03516  1.0000
  H   H112      1.0  0.02245  0.14362  0.04956  1.0000
  N   N20       1.0  0.54818  0.61921  0.48925  1.0000
  C   C193      1.0  0.52464  0.61937  0.62153  1.0000
  C   C194      1.0  0.51370  0.63954  0.68230  1.0000
  C   C195      1.0  0.52664  0.62272  0.35592  1.0000
  C   C196      1.0  0.51671  0.64575  0.29531  1.0000
  H   H113      1.0  0.53170  0.66105  0.25878  1.0000
  H   H114      1.0  0.52799  0.65445  0.72018  1.0000
  C   C197      1.0  0.93688  0.80389  0.51914  1.0000
  C   C198      1.0  0.90685  0.82424  0.50127  1.0000
  C   C199      1.0  0.93703  0.90323  0.51860  1.0000
  C   C200      1.0  0.90690  0.88310  0.50127  1.0000
  H   H115      1.0  0.88816  0.79657  0.48867  1.0000
  H   H116      1.0  0.88834  0.91109  0.48861  1.0000
  C   C201      1.0  0.50027  0.61053  0.39142  1.0000
  H   H117      1.0  0.49970  0.58939  0.43663  1.0000
  C   C202      1.0  0.49886  0.60749  0.58391  1.0000
  H   H118      1.0  0.49916  0.58836  0.53786  1.0000
  C   C203      1.0  0.50004  0.39364  0.89095  1.0000
  H   H119      1.0  0.49975  0.41380  0.93650  1.0000
  C   C204      1.0  0.50034  0.39849  0.08333  1.0000
  H   H120      1.0  0.50058  0.41724  0.03687  1.0000
  N   N21       1.0  0.00086  0.76053  0.51953  1.0000
  N   N22       1.0  0.00079  0.94687  0.51830  1.0000
  N   N23       1.0  0.00008  0.23705  0.01671  1.0000
  N   N24       1.0  0.99974  0.05141  0.01916  1.0000
  C  Sn1       1.0  0.12593  0.02854  0.56399  1.0000
  C   C205      1.0  0.12882  0.07515  0.52280  1.0000
  C  Sn2       1.0  0.10472  0.09156  0.48450  1.0000
  C  Sn3       1.0  0.07714  0.06076  0.48746  1.0000
  C   C206      1.0  0.07427  0.01419  0.52864  1.0000
  C  Sn4       1.0  0.09944  0.99774  0.56695  1.0000
  O  Te1       1.0  0.15033  0.01290  0.60184  1.0000
  O  Te2       1.0  0.10814  0.13829  0.44368  1.0000
  O  Te3       1.0  0.05274  0.07644  0.44956  1.0000
  O  Te4       1.0  0.09602  0.95105  0.60777  1.0000
  Mg  Mg1       1.0  0.06842  0.14311  0.40157  1.0000
  Mg  Mg2       1.0  0.13573  0.94622  0.64991  1.0000
  C  Sn5       1.0  0.79497  0.73539  0.05007  1.0000
  C   C207      1.0  0.78022  0.70877  0.99973  1.0000
  C  Sn6       1.0  0.78923  0.71966  0.93806  1.0000
  C  Sn7       1.0  0.81490  0.75447  0.92645  1.0000
  C   C208      1.0  0.83101  0.77769  0.97678  1.0000
  C  Sn8       1.0  0.82064  0.77020  0.03847  1.0000
  O  Te5       1.0  0.78555  0.72393  0.11134  1.0000
  O  Te6       1.0  0.77275  0.69596  0.88849  1.0000
  O  Te7       1.0  0.82432  0.76591  0.86512  1.0000
  O  Te8       1.0  0.83711  0.79387  0.08801  1.0000
  Mg  Mg3       1.0  0.79450  0.72391  0.81331  1.0000
  Mg  Mg4       1.0  0.81539  0.76592  0.16320  1.0000
  C  Sn9       1.0  0.88795  0.00001  0.56022  1.0000
  C   C209      1.0  0.91348  0.99640  0.51927  1.0000
  C  Sn10      1.0  0.92087  0.04391  0.48302  1.0000
  C  Sn11      1.0  0.90459  0.09615  0.48782  1.0000
  C   C210      1.0  0.88017  0.09975  0.52877  1.0000
  C  Sn12      1.0  0.87167  0.05225  0.56503  1.0000
  O  Te9       1.0  0.88096  0.95196  0.59602  1.0000
  O  Te10      1.0  0.94538  0.03926  0.44239  1.0000
  O  Te11      1.0  0.91268  0.14421  0.45198  1.0000
  O  Te12      1.0  0.84718  0.05689  0.60565  1.0000
  Mg  Mg5       1.0  0.94770  0.11662  0.40343  1.0000
  Mg  Mg6       1.0  0.84593  0.97957  0.64465  1.0000
  C  Sn13      1.0  0.28712  0.40655  0.55832  1.0000
  C   C211      1.0  0.27092  0.36016  0.53375  1.0000
  C  Sn14      1.0  0.27080  0.30707  0.56471  1.0000
  C  Sn15      1.0  0.28721  0.30021  0.62144  1.0000
  C   C212      1.0  0.30340  0.34659  0.64599  1.0000
  C  Sn16      1.0  0.30353  0.39970  0.61505  1.0000
  O  Te13      1.0  0.28692  0.45924  0.52658  1.0000
  O  Te14      1.0  0.25445  0.26130  0.53922  1.0000
  O  Te15      1.0  0.28741  0.24747  0.65318  1.0000
  O  Te16      1.0  0.31987  0.44544  0.64052  1.0000
  Mg  Mg7       1.0  0.26167  0.19799  0.59981  1.0000
  Mg  Mg8       1.0  0.31266  0.50878  0.57998  1.0000
  C  Sn17      1.0  0.42505  0.60105  0.24510  1.0000
  C   C213      1.0  0.42491  0.62906  0.30303  1.0000
  C  Sn18      1.0  0.39806  0.65047  0.32762  1.0000
  C  Sn19      1.0  0.37078  0.64373  0.29363  1.0000
  C   C214      1.0  0.37093  0.61573  0.23574  1.0000
  C  Sn20      1.0  0.39777  0.59430  0.21111  1.0000
  O  Te17      1.0  0.45215  0.57998  0.22142  1.0000
  O  Te18      1.0  0.39848  0.67833  0.38561  1.0000
  O  Te19      1.0  0.34367  0.66483  0.31736  1.0000
  O  Te20      1.0  0.39735  0.56645  0.15316  1.0000
  Mg  Mg9       1.0  0.35578  0.69959  0.39828  1.0000
  Mg  Mg10      1.0  0.44004  0.54516  0.14047  1.0000
  C  Sn21      1.0  0.73024  0.59109  0.88235  1.0000
  C   C215      1.0  0.74086  0.63801  0.91683  1.0000
  C  Sn22      1.0  0.72431  0.68901  0.91918  1.0000
  C  Sn23      1.0  0.69655  0.69319  0.88640  1.0000
  C   C216      1.0  0.68594  0.64629  0.85195  1.0000
  C  Sn24      1.0  0.70248  0.59527  0.84957  1.0000
  O  Te21      1.0  0.74716  0.54052  0.88066  1.0000
  O  Te22      1.0  0.73540  0.73534  0.95395  1.0000
  O  Te23      1.0  0.67963  0.74381  0.88811  1.0000
  O  Te24      1.0  0.69140  0.54895  0.81483  1.0000
  Mg  Mg11      1.0  0.70416  0.79508  0.94193  1.0000
  Mg  Mg12      1.0  0.72262  0.48919  0.82685  1.0000
  C  Sn25      1.0  0.61598  0.36483  0.83029  1.0000
  C   C217      1.0  0.58898  0.39560  0.83147  1.0000
  C  Sn26      1.0  0.57725  0.41949  0.77637  1.0000
  C  Sn27      1.0  0.59281  0.41245  0.71888  1.0000
  C   C218      1.0  0.61979  0.38169  0.71772  1.0000
  C  Sn28      1.0  0.63155  0.35779  0.77281  1.0000
  O  Te25      1.0  0.62730  0.34131  0.88595  1.0000
  O  Te26      1.0  0.55022  0.45009  0.77872  1.0000
  O  Te27      1.0  0.58147  0.43600  0.66320  1.0000
  O  Te28      1.0  0.65855  0.32720  0.77047  1.0000
  Mg  Mg13      1.0  0.54388  0.47402  0.69040  1.0000
  Mg  Mg14      1.0  0.66491  0.30322  0.85875  1.0000
  C  Sn29      1.0  0.41522  0.43318  0.76625  1.0000
  C   C219      1.0  0.41675  0.39919  0.82041  1.0000
  C  Sn30      1.0  0.39834  0.35072  0.82679  1.0000
  C  Sn31      1.0  0.37799  0.33587  0.77801  1.0000
  C   C220      1.0  0.37647  0.36984  0.72389  1.0000
  C  Sn32      1.0  0.39487  0.41834  0.71747  1.0000
  O  Te29      1.0  0.43383  0.48145  0.76087  1.0000
  O  Te30      1.0  0.40026  0.31741  0.88138  1.0000
  O  Te31      1.0  0.35937  0.28756  0.78343  1.0000
  O  Te32      1.0  0.39296  0.45163  0.66292  1.0000
  Mg  Mg15      1.0  0.37025  0.25574  0.86673  1.0000
  Mg  Mg16      1.0  0.42296  0.51329  0.67750  1.0000
  C  Sn33      1.0  0.80733  0.23697  0.55132  1.0000
  C   C221      1.0  0.81921  0.20757  0.49997  1.0000
  C  Sn34      1.0  0.81469  0.22827  0.43905  1.0000
  C  Sn35      1.0  0.79795  0.27946  0.42925  1.0000
  C   C222      1.0  0.78608  0.30884  0.48058  1.0000
  C  Sn36      1.0  0.79059  0.28815  0.54152  1.0000
  O  Te33      1.0  0.81213  0.21549  0.61181  1.0000
  O  Te34      1.0  0.82678  0.19812  0.38845  1.0000
  O  Te35      1.0  0.79315  0.30093  0.36869  1.0000
  O  Te36      1.0  0.77851  0.31828  0.59210  1.0000
  Mg  Mg17      1.0  0.81415  0.24459  0.31493  1.0000
  Mg  Mg18      1.0  0.79114  0.27187  0.66563  1.0000
  C  Sn37      1.0  0.62979  0.63887  0.30983  1.0000
  C   C223      1.0  0.63027  0.60858  0.25330  1.0000
  C  Sn38      1.0  0.60394  0.58370  0.22965  1.0000
  C  Sn39      1.0  0.57655  0.58923  0.26316  1.0000
  C   C224      1.0  0.57608  0.61951  0.31964  1.0000
  C  Sn40      1.0  0.60240  0.64441  0.34334  1.0000
  O  Te37      1.0  0.65638  0.66340  0.33260  1.0000
  O  Te38      1.0  0.60498  0.55360  0.17305  1.0000
  O  Te39      1.0  0.54995  0.56466  0.24034  1.0000
  O  Te40      1.0  0.60136  0.67449  0.39990  1.0000
  Mg  Mg19      1.0  0.56282  0.52786  0.16123  1.0000
  Mg  Mg20      1.0  0.64351  0.70027  0.41174  1.0000
  C  Sn41      1.0  0.90180  0.36937  0.95840  1.0000
  C   C225      1.0  0.87675  0.37412  0.99759  1.0000
  C  Sn42      1.0  0.87388  0.34596  0.05343  1.0000
  C  Sn43      1.0  0.89792  0.30892  0.07049  1.0000
  C   C226      1.0  0.92295  0.30419  0.03133  1.0000
  C  Sn44      1.0  0.92584  0.33233  0.97547  1.0000
  O  Te41      1.0  0.90283  0.40130  0.90280  1.0000
  O  Te42      1.0  0.84860  0.35141  0.09182  1.0000
  O  Te43      1.0  0.89687  0.27697  0.12615  1.0000
  O  Te44      1.0  0.95111  0.32690  0.93709  1.0000
  Mg  Mg21      1.0  0.85767  0.29903  0.16285  1.0000
  Mg  Mg22      1.0  0.94206  0.37928  0.86607  1.0000
  C  Sn45      1.0  0.79487  0.55821  0.92378  1.0000
  C   C227      1.0  0.78021  0.58036  0.97634  1.0000
  C  Sn46      1.0  0.79070  0.57497  0.03640  1.0000
  C  Sn47      1.0  0.81779  0.54345  0.04409  1.0000
  C   C228      1.0  0.83380  0.51796  0.99154  1.0000
  C  Sn48      1.0  0.82196  0.52669  0.93146  1.0000
  O  Te45      1.0  0.78261  0.56749  0.86418  1.0000
  O  Te46      1.0  0.77564  0.59752  0.08825  1.0000
  O  Te47      1.0  0.83004  0.53418  0.10375  1.0000
  O  Te48      1.0  0.83701  0.50417  0.87964  1.0000
  Mg  Mg23      1.0  0.80125  0.57346  0.15984  1.0000
  Mg  Mg24      1.0  0.81142  0.52823  0.80802  1.0000
  C  Sn49      1.0  0.59195  0.41505  0.25129  1.0000
  C   C229      1.0  0.61864  0.38330  0.25034  1.0000
  C  Sn50      1.0  0.62803  0.35645  0.19523  1.0000
  C  Sn51      1.0  0.61039  0.36147  0.13990  1.0000
  C   C230      1.0  0.58372  0.39322  0.14086  1.0000
  C  Sn52      1.0  0.57431  0.42007  0.19596  1.0000
  O  Te49      1.0  0.58300  0.44153  0.30691  1.0000
  O  Te50      1.0  0.65479  0.32492  0.19544  1.0000
  O  Te51      1.0  0.61936  0.33496  0.08425  1.0000
  O  Te52      1.0  0.54757  0.45159  0.19577  1.0000
  Mg  Mg25      1.0  0.65754  0.29673  0.10808  1.0000
  Mg  Mg26      1.0  0.54481  0.47982  0.28309  1.0000
  C  Sn53      1.0  0.89558  0.69072  0.58160  1.0000
  C   C231      1.0  0.92102  0.69356  0.54324  1.0000
  C  Sn54      1.0  0.92290  0.65961  0.48943  1.0000
  C  Sn55      1.0  0.89885  0.62207  0.47361  1.0000
  C   C232      1.0  0.87343  0.61926  0.51195  1.0000
  C  Sn56      1.0  0.87153  0.65318  0.56578  1.0000
  O  Te53      1.0  0.89418  0.72505  0.63517  1.0000
  O  Te54      1.0  0.94857  0.66318  0.45183  1.0000
  O  Te55      1.0  0.90027  0.58773  0.41999  1.0000
  O  Te56      1.0  0.84588  0.64964  0.60336  1.0000
  Mg  Mg27      1.0  0.93991  0.60783  0.38366  1.0000
  Mg  Mg28      1.0  0.85450  0.70498  0.67152  1.0000
  C  Sn57      1.0  0.29633  0.69913  0.87937  1.0000
  C   C233      1.0  0.30847  0.65104  0.84954  1.0000
  C  Sn58      1.0  0.29456  0.59730  0.85516  1.0000
  C  Sn59      1.0  0.26795  0.59151  0.89133  1.0000
  C   C234      1.0  0.25583  0.63958  0.92113  1.0000
  C  Sn60      1.0  0.26973  0.69334  0.91554  1.0000
  O  Te57      1.0  0.31061  0.75244  0.87310  1.0000
  O  Te58      1.0  0.30712  0.54984  0.82492  1.0000
  O  Te59      1.0  0.25368  0.53814  0.89759  1.0000
  O  Te60      1.0  0.25718  0.74078  0.94575  1.0000
  Mg  Mg29      1.0  0.27940  0.48627  0.84751  1.0000
  Mg  Mg30      1.0  0.28487  0.80437  0.92317  1.0000
  C  Sn61      1.0  0.81469  0.45258  0.55356  1.0000
  C   C235      1.0  0.83102  0.47493  0.50304  1.0000
  C  Sn62      1.0  0.82136  0.46548  0.44148  1.0000
  C  Sn63      1.0  0.79481  0.43305  0.43018  1.0000
  C   C236      1.0  0.77849  0.41074  0.48067  1.0000
  C  Sn64      1.0  0.78814  0.42016  0.54225  1.0000
  O  Te61      1.0  0.82476  0.46257  0.61471  1.0000
  O  Te62      1.0  0.83807  0.48823  0.39174  1.0000
  O  Te63      1.0  0.78475  0.42308  0.36896  1.0000
  O  Te64      1.0  0.77144  0.39743  0.59197  1.0000
  Mg  Mg31      1.0  0.81520  0.46298  0.31682  1.0000
  Mg  Mg32      1.0  0.79429  0.42268  0.66691  1.0000
