data_image0
_chemical_formula_structural       CHCHC4H2C3NCHC2NCH2C3NCHC2NCH2CN2C4H2C3NCHC2NCH2C3NCHC2NCH2CN2C4H2CHCHC4H2CuN4CuC2Sn2C2HTe2HMgC2Sn2C2HTe2HMgC2Sn2C2HTe2HMgC2Sn2C2HTe2HMgC2Sn2C2HTe2HMgC2Sn2C2HTe2HMgC2Sn2C2HTe2HMgC2Sn2C2HTe2HMgC2Sn2C2HTe2HMgC2Sn2C2HTe2HMgC2Sn2C2HTe2HMgC2Sn2C2HTe2HMgC2Sn2C2HTe2HMgC2Sn2C2HTe2HMgC2Sn2C2HTe2HMgC2Sn2C2HTe2HMg
_chemical_formula_sum              "C114 H56 N16 Cu2 Sn32 Te32 Mg16"
_cell_length_a       44.3081
_cell_length_b       23.272
_cell_length_c       21.1889
_cell_angle_alpha    90.1968
_cell_angle_beta     89.9432
_cell_angle_gamma    89.8326

_symmetry_space_group_name_H-M    'P1'
_space_group_IT_number       1

loop_
  _space_group_symop_operation_xyz
  'x, y, z'

loop_
  _atom_site_type_symbol
  _atom_site_label
  _atom_site_symmetry_multiplicity
  _atom_site_fract_x
  _atom_site_fract_y
  _atom_site_fract_z
  _atom_site_occupancy
  C   C1        1.0  0.34979  0.38442  0.68552  1.0000
  H   H1        1.0  0.35183  0.41679  0.64801  1.0000
  C   C2        1.0  0.34917  0.38310  0.28806  1.0000
  H   H2        1.0  0.35008  0.41774  0.32354  1.0000
  C   C3        1.0  0.06431  0.79816  0.51956  1.0000
  C   C4        1.0  0.09552  0.81504  0.51383  1.0000
  C   C5        1.0  0.06534  0.89306  0.52316  1.0000
  C   C6        1.0  0.09618  0.87370  0.51614  1.0000
  H   H3        1.0  0.11423  0.78548  0.50783  1.0000
  H   H4        1.0  0.11565  0.90155  0.51289  1.0000
  C   C7        1.0  0.85106  0.57146  0.52551  1.0000
  C   C8        1.0  0.56356  0.38574  0.03828  1.0000
  C   C9        1.0  0.55454  0.38035  0.10152  1.0000
  N   N1        1.0  0.66970  0.34913  0.29225  1.0000
  C   C10       1.0  0.40510  0.40251  0.01917  1.0000
  H   H5        1.0  0.38661  0.41389  0.92346  1.0000
  C   C11       1.0  0.02406  0.72453  0.52367  1.0000
  C   C12       1.0  0.01411  0.66595  0.53106  1.0000
  N   N2        1.0  0.14906  0.52589  0.47973  1.0000
  C   C13       1.0  0.94403  0.74500  0.52327  1.0000
  H   H6        1.0  0.02894  0.62919  0.53614  1.0000
  H   H7        1.0  0.83365  0.57713  0.56211  1.0000
  C   C14       1.0  0.85421  0.13118  0.52414  1.0000
  C   C15       1.0  0.56359  0.38410  0.93391  1.0000
  C   C16       1.0  0.55461  0.37761  0.87070  1.0000
  N   N3        1.0  0.67136  0.33807  0.68380  1.0000
  C   C17       1.0  0.40524  0.40422  0.95475  1.0000
  H   H8        1.0  0.38633  0.41045  0.05076  1.0000
  C   C18       1.0  0.02647  0.96919  0.53242  1.0000
  C   C19       1.0  0.01739  0.02791  0.54399  1.0000
  N   N4        1.0  0.15297  0.16012  0.48660  1.0000
  C   C20       1.0  0.94631  0.95507  0.52525  1.0000
  H   H9        1.0  0.03271  0.06304  0.55354  1.0000
  H   H10       1.0  0.83947  0.13153  0.56603  1.0000
  C   C21       1.0  0.23896  0.34568  0.48766  1.0000
  N   N5        1.0  0.04609  0.84633  0.52422  1.0000
  N   N6        1.0  0.54498  0.38017  0.98612  1.0000
  C   C22       1.0  0.52438  0.37376  0.12047  1.0000
  C   C23       1.0  0.51478  0.36136  0.18406  1.0000
  C   C24       1.0  0.52435  0.37359  0.85165  1.0000
  C   C25       1.0  0.51453  0.36293  0.78771  1.0000
  H   H11       1.0  0.52932  0.35354  0.74827  1.0000
  H   H12       1.0  0.52979  0.35271  0.22315  1.0000
  C   C26       1.0  0.14615  0.56443  0.52333  1.0000
  C   C27       1.0  0.43550  0.38915  0.03881  1.0000
  C   C28       1.0  0.44440  0.38128  0.10169  1.0000
  N   N7        1.0  0.32860  0.34393  0.28968  1.0000
  C   C29       1.0  0.59420  0.39611  0.01814  1.0000
  H   H13       1.0  0.61298  0.40201  0.92192  1.0000
  C   C30       1.0  0.97419  0.72639  0.52516  1.0000
  C   C31       1.0  0.98331  0.66712  0.53212  1.0000
  N   N8        1.0  0.85033  0.52944  0.48557  1.0000
  C   C32       1.0  0.05445  0.74091  0.52081  1.0000
  H   H14       1.0  0.96805  0.63135  0.53817  1.0000
  H   H15       1.0  0.16123  0.56634  0.56458  1.0000
  C   C33       1.0  0.15041  0.12260  0.53101  1.0000
  C   C34       1.0  0.43569  0.39157  0.93470  1.0000
  C   C35       1.0  0.44458  0.38563  0.87144  1.0000
  N   N9        1.0  0.32814  0.34737  0.68633  1.0000
  C   C36       1.0  0.59420  0.39505  0.95365  1.0000
  H   H16       1.0  0.61319  0.40373  0.04914  1.0000
  C   C37       1.0  0.97667  0.97109  0.53064  1.0000
  C   C38       1.0  0.98659  0.02909  0.54261  1.0000
  N   N10       1.0  0.85003  0.16605  0.47770  1.0000
  C   C39       1.0  0.05660  0.95087  0.52852  1.0000
  H   H17       1.0  0.97171  0.06538  0.55045  1.0000
  H   H18       1.0  0.16624  0.12063  0.57098  1.0000
  C   C40       1.0  0.76124  0.34844  0.48655  1.0000
  N   N11       1.0  0.95470  0.84961  0.52416  1.0000
  N   N12       1.0  0.45411  0.38422  0.98663  1.0000
  C   C41       1.0  0.47451  0.37362  0.12027  1.0000
  C   C42       1.0  0.48393  0.36094  0.18383  1.0000
  C   C43       1.0  0.47456  0.37791  0.85194  1.0000
  C   C44       1.0  0.48374  0.36590  0.78788  1.0000
  H   H19       1.0  0.46848  0.35962  0.74862  1.0000
  H   H20       1.0  0.46871  0.35187  0.22251  1.0000
  C   C45       1.0  0.64816  0.37174  0.68140  1.0000
  H   H21       1.0  0.64491  0.40266  0.64275  1.0000
  C   C46       1.0  0.64977  0.38941  0.28742  1.0000
  H   H22       1.0  0.64940  0.42680  0.31942  1.0000
  C   C47       1.0  0.93544  0.80303  0.52074  1.0000
  C   C48       1.0  0.90469  0.82256  0.51367  1.0000
  C   C49       1.0  0.93650  0.89794  0.52104  1.0000
  C   C50       1.0  0.90536  0.88120  0.51378  1.0000
  H   H23       1.0  0.88535  0.79469  0.50823  1.0000
  H   H24       1.0  0.88663  0.91075  0.50873  1.0000
  Cu  Cu1       1.0  0.49953  0.38118  0.98630  1.0000
  N   N13       1.0  0.49959  0.38101  0.89066  1.0000
  N   N14       1.0  0.49949  0.37933  0.08161  1.0000
  N   N15       1.0  0.99942  0.76112  0.52108  1.0000
  N   N16       1.0  0.00129  0.93466  0.52598  1.0000
  Cu  Cu2       1.0  0.00039  0.84793  0.52331  1.0000
  C   C51       1.0  0.09515  0.61836  0.46320  1.0000
  C   C52       1.0  0.11872  0.61022  0.50603  1.0000
  C  Sn1       1.0  0.12079  0.64463  0.56001  1.0000
  C  Sn2       1.0  0.09880  0.68793  0.57120  1.0000
  C   C53       1.0  0.07529  0.69570  0.52809  1.0000
  C   C54       1.0  0.07344  0.66104  0.47421  1.0000
  H   H25       1.0  0.09371  0.59153  0.42153  1.0000
  O  Te1       1.0  0.14450  0.63594  0.60231  1.0000
  O  Te2       1.0  0.10032  0.72291  0.62479  1.0000
  H   H26       1.0  0.05517  0.66733  0.44108  1.0000
  Mg  Mg1       1.0  0.13688  0.69451  0.66852  1.0000
  C   C55       1.0  0.20123  0.43186  0.55188  1.0000
  C   C56       1.0  0.21256  0.39908  0.50176  1.0000
  C  Sn3       1.0  0.20329  0.41026  0.43999  1.0000
  C  Sn4       1.0  0.18230  0.45513  0.42833  1.0000
  C   C57       1.0  0.17112  0.48771  0.47879  1.0000
  C   C58       1.0  0.18054  0.47615  0.54042  1.0000
  H   H27       1.0  0.20853  0.42294  0.59956  1.0000
  O  Te3       1.0  0.21482  0.37708  0.39047  1.0000
  O  Te4       1.0  0.17267  0.46724  0.36706  1.0000
  H   H28       1.0  0.17178  0.50156  0.57921  1.0000
  Mg  Mg2       1.0  0.19483  0.41007  0.31523  1.0000
  C   C59       1.0  0.41550  0.43125  0.21140  1.0000
  C   C60       1.0  0.42170  0.39044  0.16458  1.0000
  C  Sn5       1.0  0.40187  0.34482  0.15417  1.0000
  C  Sn6       1.0  0.37535  0.34010  0.19137  1.0000
  C   C61       1.0  0.36934  0.38118  0.23805  1.0000
  C   C62       1.0  0.38934  0.42664  0.24809  1.0000
  H   H29       1.0  0.43096  0.46645  0.21915  1.0000
  O  Te5       1.0  0.40841  0.30441  0.10722  1.0000
  O  Te6       1.0  0.35514  0.29495  0.18194  1.0000
  H   H30       1.0  0.38453  0.45826  0.28431  1.0000
  Mg  Mg3       1.0  0.37394  0.25061  0.11226  1.0000
  C   C63       1.0  0.28608  0.40636  0.36466  1.0000
  C   C64       1.0  0.30383  0.36115  0.34170  1.0000
  C  Sn7       1.0  0.29901  0.30511  0.36281  1.0000
  C  Sn8       1.0  0.27597  0.29426  0.40774  1.0000
  C   C65       1.0  0.25832  0.33978  0.43039  1.0000
  C   C66       1.0  0.26334  0.39569  0.40895  1.0000
  H   H31       1.0  0.28995  0.44962  0.34806  1.0000
  O  Te7       1.0  0.31695  0.26045  0.33940  1.0000
  O  Te8       1.0  0.27066  0.23866  0.42962  1.0000
  H   H32       1.0  0.24958  0.43068  0.42671  1.0000
  Mg  Mg4       1.0  0.30106  0.19206  0.38365  1.0000
  C   C67       1.0  0.11074  0.00251  0.58556  1.0000
  C   C68       1.0  0.08488  0.99673  0.54410  1.0000
  C  Sn9       1.0  0.08381  0.03290  0.49189  1.0000
  C  Sn10      1.0  0.10600  0.07560  0.48110  1.0000
  C   C69       1.0  0.13025  0.08101  0.52283  1.0000
  C   C70       1.0  0.13264  0.04460  0.57494  1.0000
  H   H33       1.0  0.11106  0.97432  0.62586  1.0000
  O  Te9       1.0  0.05936  0.02656  0.45095  1.0000
  O  Te10      1.0  0.10395  0.11231  0.42927  1.0000
  H   H34       1.0  0.15148  0.04906  0.60701  1.0000
  Mg  Mg5       1.0  0.06646  0.08686  0.38692  1.0000
  C   C71       1.0  0.20402  0.25576  0.42362  1.0000
  C   C72       1.0  0.21461  0.28953  0.47352  1.0000
  C  Sn11      1.0  0.20529  0.27846  0.53529  1.0000
  C  Sn12      1.0  0.18500  0.23269  0.54720  1.0000
  C   C73       1.0  0.17455  0.19913  0.49696  1.0000
  C   C74       1.0  0.18401  0.21060  0.43532  1.0000
  H   H35       1.0  0.21135  0.26461  0.37594  1.0000
  O  Te11      1.0  0.21608  0.31263  0.58459  1.0000
  O  Te12      1.0  0.17534  0.22067  0.60848  1.0000
  H   H36       1.0  0.17582  0.18442  0.39671  1.0000
  Mg  Mg6       1.0  0.19635  0.27936  0.65995  1.0000
  C   C75       1.0  0.41716  0.43154  0.75847  1.0000
  C   C76       1.0  0.42032  0.39799  0.81265  1.0000
  C  Sn13      1.0  0.39976  0.35411  0.82536  1.0000
  C  Sn14      1.0  0.37562  0.34371  0.78293  1.0000
  C   C77       1.0  0.37266  0.37748  0.72883  1.0000
  C   C78       1.0  0.39336  0.42129  0.71659  1.0000
  H   H37       1.0  0.43318  0.46542  0.74898  1.0000
  O  Te13      1.0  0.40325  0.32102  0.87972  1.0000
  O  Te14      1.0  0.35476  0.30011  0.79447  1.0000
  H   H38       1.0  0.39092  0.44723  0.67461  1.0000
  Mg  Mg7       1.0  0.36903  0.26660  0.87489  1.0000
  C   C79       1.0  0.28824  0.28870  0.60857  1.0000
  C   C80       1.0  0.30372  0.33562  0.63396  1.0000
  C  Sn15      1.0  0.29650  0.39144  0.61504  1.0000
  C  Sn16      1.0  0.27334  0.40032  0.56988  1.0000
  C   C81       1.0  0.25798  0.35309  0.54480  1.0000
  C   C82       1.0  0.26539  0.29742  0.56405  1.0000
  H   H39       1.0  0.29397  0.24562  0.62348  1.0000
  O  Te15      1.0  0.31219  0.43784  0.64086  1.0000
  O  Te16      1.0  0.26566  0.45566  0.55016  1.0000
  H   H40       1.0  0.25339  0.26110  0.54442  1.0000
  Mg  Mg8       1.0  0.29353  0.50508  0.59899  1.0000
  C   C83       1.0  0.58280  0.43355  0.20993  1.0000
  C   C84       1.0  0.57887  0.39507  0.15985  1.0000
  C  Sn17      1.0  0.59870  0.34883  0.15184  1.0000
  C  Sn18      1.0  0.62289  0.34107  0.19484  1.0000
  C   C85       1.0  0.62661  0.37978  0.24482  1.0000
  C   C86       1.0  0.60664  0.42591  0.25239  1.0000
  H   H41       1.0  0.56734  0.46923  0.21582  1.0000
  O  Te17      1.0  0.59446  0.31080  0.10153  1.0000
  O  Te18      1.0  0.64304  0.29521  0.18794  1.0000
  H   H42       1.0  0.60967  0.45568  0.29119  1.0000
  Mg  Mg9       1.0  0.62787  0.25491  0.11193  1.0000
  C   C87       1.0  0.71314  0.41116  0.36548  1.0000
  C   C88       1.0  0.69706  0.36556  0.33884  1.0000
  C  Sn19      1.0  0.70104  0.30972  0.36143  1.0000
  C  Sn20      1.0  0.72151  0.29948  0.41164  1.0000
  C   C89       1.0  0.73746  0.34539  0.43800  1.0000
  C   C90       1.0  0.73331  0.40109  0.41502  1.0000
  H   H43       1.0  0.70991  0.45426  0.34773  1.0000
  O  Te19      1.0  0.68481  0.26466  0.33425  1.0000
  O  Te20      1.0  0.72591  0.24409  0.43514  1.0000
  H   H44       1.0  0.74575  0.43639  0.43569  1.0000
  Mg  Mg10      1.0  0.69859  0.19678  0.38258  1.0000
  C   C91       1.0  0.91756  0.05293  0.46632  1.0000
  C   C92       1.0  0.92442  0.01319  0.51351  1.0000
  C  Sn21      1.0  0.90637  0.00952  0.56744  1.0000
  C  Sn22      1.0  0.88099  0.04637  0.57411  1.0000
  C   C93       1.0  0.87430  0.08596  0.52661  1.0000
  C   C94       1.0  0.89252  0.08928  0.47285  1.0000
  H   H45       1.0  0.93164  0.05549  0.42471  1.0000
  O  Te21      1.0  0.91201  0.96958  0.61414  1.0000
  O  Te22      1.0  0.86256  0.04360  0.62751  1.0000
  H   H46       1.0  0.88720  0.12003  0.43631  1.0000
  Mg  Mg11      1.0  0.88007  0.98211  0.67823  1.0000
  C   C95       1.0  0.80571  0.23128  0.41873  1.0000
  C   C96       1.0  0.82559  0.21455  0.46646  1.0000
  C  Sn23      1.0  0.82322  0.23863  0.52676  1.0000
  C  Sn24      1.0  0.80050  0.28021  0.53937  1.0000
  C   C97       1.0  0.78071  0.29663  0.49131  1.0000
  C   C98       1.0  0.78329  0.27227  0.43113  1.0000
  H   H47       1.0  0.80769  0.21241  0.37218  1.0000
  O  Te23      1.0  0.84328  0.22144  0.57390  1.0000
  O  Te24      1.0  0.79763  0.30495  0.59922  1.0000
  H   H48       1.0  0.76788  0.28521  0.39420  1.0000
  Mg  Mg12      1.0  0.83031  0.26753  0.64791  1.0000
  C   C99       1.0  0.62190  0.32755  0.79581  1.0000
  C   C100      1.0  0.62444  0.35913  0.74008  1.0000
  C  Sn25      1.0  0.60358  0.40244  0.72638  1.0000
  C  Sn26      1.0  0.57976  0.41428  0.76935  1.0000
  C   C101      1.0  0.57743  0.38247  0.82499  1.0000
  C   C102      1.0  0.59842  0.33921  0.83823  1.0000
  H   H49       1.0  0.63815  0.29409  0.80607  1.0000
  O  Te25      1.0  0.60644  0.43357  0.67048  1.0000
  O  Te26      1.0  0.55861  0.45735  0.75684  1.0000
  H   H50       1.0  0.59646  0.31479  0.88140  1.0000
  Mg  Mg13      1.0  0.57203  0.48799  0.67442  1.0000
  C   C103      1.0  0.72778  0.28637  0.58562  1.0000
  C   C104      1.0  0.73730  0.33250  0.54862  1.0000
  C  Sn27      1.0  0.72574  0.38759  0.55941  1.0000
  C  Sn28      1.0  0.70426  0.39653  0.60818  1.0000
  C   C105      1.0  0.69489  0.35010  0.64497  1.0000
  C   C106      1.0  0.70660  0.29516  0.63376  1.0000
  H   H51       1.0  0.73685  0.24386  0.57698  1.0000
  O  Te27      1.0  0.73549  0.43319  0.52199  1.0000
  O  Te28      1.0  0.69234  0.45114  0.61999  1.0000
  H   H52       1.0  0.69923  0.25946  0.66244  1.0000
  Mg  Mg14      1.0  0.71267  0.49963  0.55630  1.0000
  C   C107      1.0  0.91616  0.64404  0.46965  1.0000
  C   C108      1.0  0.91919  0.69212  0.50880  1.0000
  C  Sn29      1.0  0.89978  0.70000  0.56012  1.0000
  C  Sn30      1.0  0.87694  0.65890  0.57238  1.0000
  C   C109      1.0  0.87411  0.61092  0.53296  1.0000
  C   C110      1.0  0.89365  0.60347  0.48172  1.0000
  H   H53       1.0  0.93129  0.63825  0.43002  1.0000
  O  Te29      1.0  0.90311  0.74830  0.59875  1.0000
  O  Te30      1.0  0.85724  0.66571  0.62337  1.0000
  H   H54       1.0  0.89132  0.56621  0.45144  1.0000
  Mg  Mg15      1.0  0.87078  0.73860  0.66243  1.0000
  C   C111      1.0  0.79680  0.43628  0.55413  1.0000
  C   C112      1.0  0.78398  0.40790  0.50251  1.0000
  C  Sn31      1.0  0.79486  0.41771  0.44160  1.0000
  C  Sn32      1.0  0.81903  0.45667  0.43233  1.0000
  C   C113      1.0  0.83171  0.48481  0.48428  1.0000
  C   C114      1.0  0.82064  0.47469  0.54503  1.0000
  H   H55       1.0  0.78824  0.42843  0.60114  1.0000
  O  Te31      1.0  0.78180  0.38902  0.39055  1.0000
  O  Te32      1.0  0.83035  0.46725  0.37196  1.0000
  H   H56       1.0  0.83057  0.49664  0.58499  1.0000
  Mg  Mg16      1.0  0.80507  0.41776  0.31736  1.0000
