data_image0
_chemical_formula_structural       CHCHC4H2C3NCHC2NCH2C3NCHC2NCH2C2HNC4H2C3NCHC2NCH2C3NCHC2NCH2C2HNC4H2CHCHC4H2CHCHN2C2Sn2C2HTe2HMgC2Sn2C2HTe2HMgC2Sn2C2HTe2HMgC2Sn2C2HTe2HMgC2Sn2C2HTe2HMgC2Sn2C2HTe2HMgC2Sn2C2HTe2HMgC2Sn2C2HTe2HMgC2Sn2C2HTe2HMgC2Sn2C2HTe2HMgC2Sn2C2HTe2HMgC2Sn2C2HTe2HMgC2Sn2C2HTe2HMgC2Sn2C2HTe2HMgC2Sn2C2HTe2HMgC2Sn2C2HTe2HMg
_chemical_formula_sum              "C118 H60 N12 Sn32 Te32 Mg16"
_cell_length_a       44.2568
_cell_length_b       23.3236
_cell_length_c       21.4302
_cell_angle_alpha    90.1959
_cell_angle_beta     89.791
_cell_angle_gamma    89.9468

_symmetry_space_group_name_H-M    'P1'
_space_group_IT_number       1

loop_
  _space_group_symop_operation_xyz
  'x, y, z'

loop_
  _atom_site_type_symbol
  _atom_site_label
  _atom_site_symmetry_multiplicity
  _atom_site_fract_x
  _atom_site_fract_y
  _atom_site_fract_z
  _atom_site_occupancy
  C   C1        1.0  0.35135  0.38316  0.68625  1.0000
  H   H1        1.0  0.35514  0.41233  0.64677  1.0000
  C   C2        1.0  0.34942  0.38835  0.28955  1.0000
  H   H2        1.0  0.35223  0.42011  0.32720  1.0000
  C   C3        1.0  0.06370  0.80535  0.51903  1.0000
  C   C4        1.0  0.09441  0.82447  0.50400  1.0000
  C   C5        1.0  0.06487  0.90436  0.52089  1.0000
  C   C6        1.0  0.09508  0.88312  0.50511  1.0000
  H   H3        1.0  0.11295  0.79614  0.49183  1.0000
  H   H4        1.0  0.11422  0.91016  0.49385  1.0000
  C   C7        1.0  0.85029  0.57854  0.52670  1.0000
  C   C8        1.0  0.56601  0.38941  0.03962  1.0000
  C   C9        1.0  0.55605  0.38520  0.10290  1.0000
  N   N1        1.0  0.66994  0.35645  0.29363  1.0000
  C   C10       1.0  0.40426  0.41519  0.01936  1.0000
  H   H5        1.0  0.38700  0.42932  0.92422  1.0000
  C   C11       1.0  0.02341  0.72894  0.52358  1.0000
  C   C12       1.0  0.01390  0.67090  0.53819  1.0000
  N   N2        1.0  0.15035  0.53610  0.48576  1.0000
  C   C13       1.0  0.94371  0.75050  0.52154  1.0000
  H   H6        1.0  0.02869  0.63519  0.54855  1.0000
  H   H7        1.0  0.83280  0.58479  0.56277  1.0000
  C   C14       1.0  0.85276  0.13809  0.51978  1.0000
  C   C15       1.0  0.56638  0.38536  0.93799  1.0000
  C   C16       1.0  0.55674  0.37724  0.87508  1.0000
  N   N3        1.0  0.67276  0.34116  0.68641  1.0000
  C   C17       1.0  0.40454  0.41447  0.95540  1.0000
  H   H8        1.0  0.38642  0.43040  0.05001  1.0000
  C   C18       1.0  0.02562  0.98220  0.52901  1.0000
  C   C19       1.0  0.01677  0.03987  0.54727  1.0000
  N   N4        1.0  0.15087  0.17508  0.48653  1.0000
  C   C20       1.0  0.94568  0.96514  0.52371  1.0000
  H   H9        1.0  0.03193  0.07426  0.56038  1.0000
  H   H10       1.0  0.83667  0.13650  0.55905  1.0000
  C   C21       1.0  0.23994  0.35588  0.49083  1.0000
  C   C22       1.0  0.04612  0.85545  0.52986  1.0000
  H   H11       1.0  0.02293  0.85654  0.54545  1.0000
  N   N5        1.0  0.54872  0.37466  0.98919  1.0000
  C   C23       1.0  0.52550  0.37943  0.12113  1.0000
  C   C24       1.0  0.51448  0.36184  0.18261  1.0000
  C   C25       1.0  0.52632  0.37198  0.85677  1.0000
  C   C26       1.0  0.51562  0.35221  0.79587  1.0000
  H   H12       1.0  0.53009  0.33640  0.75870  1.0000
  H   H13       1.0  0.52886  0.34842  0.22066  1.0000
  C   C27       1.0  0.14767  0.57594  0.52745  1.0000
  C   C28       1.0  0.43351  0.39335  0.03865  1.0000
  C   C29       1.0  0.44302  0.38703  0.10182  1.0000
  N   N6        1.0  0.32746  0.35190  0.28998  1.0000
  C   C30       1.0  0.59553  0.40993  0.01996  1.0000
  H   H14       1.0  0.61361  0.42035  0.92447  1.0000
  C   C31       1.0  0.97417  0.73025  0.52391  1.0000
  C   C32       1.0  0.98295  0.67172  0.53849  1.0000
  N   N7        1.0  0.84976  0.53599  0.48805  1.0000
  C   C33       1.0  0.05403  0.74767  0.52119  1.0000
  H   H15       1.0  0.96780  0.63666  0.54924  1.0000
  H   H16       1.0  0.16353  0.58047  0.56667  1.0000
  C   C34       1.0  0.14946  0.13469  0.52749  1.0000
  C   C35       1.0  0.43390  0.39203  0.93701  1.0000
  C   C36       1.0  0.44382  0.38374  0.87419  1.0000
  N   N8        1.0  0.32795  0.35021  0.68893  1.0000
  C   C37       1.0  0.59578  0.40721  0.95606  1.0000
  H   H17       1.0  0.61318  0.42613  0.05009  1.0000
  C   C38       1.0  0.97636  0.98340  0.52830  1.0000
  C   C39       1.0  0.98580  0.04063  0.54678  1.0000
  N   N9        1.0  0.85018  0.17537  0.47574  1.0000
  C   C40       1.0  0.05614  0.96238  0.52496  1.0000
  H   H18       1.0  0.97100  0.07582  0.55943  1.0000
  H   H19       1.0  0.16620  0.13055  0.56513  1.0000
  C   C41       1.0  0.76065  0.35531  0.48708  1.0000
  C   C42       1.0  0.95365  0.85749  0.52921  1.0000
  H   H20       1.0  0.97690  0.85654  0.54419  1.0000
  N   N10       1.0  0.45106  0.37946  0.98814  1.0000
  C   C43       1.0  0.47332  0.38028  0.12043  1.0000
  C   C44       1.0  0.48355  0.36228  0.18218  1.0000
  C   C45       1.0  0.47421  0.37542  0.85622  1.0000
  C   C46       1.0  0.48473  0.35430  0.79557  1.0000
  H   H21       1.0  0.47006  0.34054  0.75810  1.0000
  H   H22       1.0  0.46861  0.34925  0.21972  1.0000
  C   C47       1.0  0.64898  0.37330  0.68481  1.0000
  H   H23       1.0  0.64469  0.40266  0.64571  1.0000
  C   C48       1.0  0.64885  0.39459  0.29113  1.0000
  H   H24       1.0  0.64681  0.42898  0.32620  1.0000
  C   C49       1.0  0.93499  0.80861  0.51936  1.0000
  C   C50       1.0  0.90471  0.82988  0.50472  1.0000
  C   C51       1.0  0.93596  0.90760  0.51985  1.0000
  C   C52       1.0  0.90532  0.88851  0.50465  1.0000
  H   H25       1.0  0.88554  0.80285  0.49377  1.0000
  H   H26       1.0  0.88674  0.91682  0.49329  1.0000
  C   C53       1.0  0.50032  0.38599  0.89299  1.0000
  H   H27       1.0  0.50050  0.40546  0.93875  1.0000
  C   C54       1.0  0.49965  0.39034  0.08366  1.0000
  H   H28       1.0  0.49992  0.40719  0.03679  1.0000
  N   N11       1.0  0.99900  0.76393  0.51431  1.0000
  N   N12       1.0  0.00085  0.94885  0.51736  1.0000
  C   C55       1.0  0.11950  0.67619  0.57631  1.0000
  C   C56       1.0  0.12284  0.62721  0.53916  1.0000
  C  Sn1       1.0  0.10336  0.61750  0.48907  1.0000
  C  Sn2       1.0  0.08015  0.65766  0.47602  1.0000
  C   C57       1.0  0.07701  0.70655  0.51343  1.0000
  C   C58       1.0  0.09662  0.71583  0.56346  1.0000
  H   H29       1.0  0.13468  0.68338  0.61500  1.0000
  O  Te1       1.0  0.10701  0.56834  0.45244  1.0000
  O  Te2       1.0  0.06038  0.64903  0.42623  1.0000
  H   H30       1.0  0.09404  0.75377  0.59219  1.0000
  Mg  Mg1       1.0  0.07444  0.57554  0.38979  1.0000
  C   C59       1.0  0.19013  0.46426  0.55613  1.0000
  C   C60       1.0  0.17668  0.49212  0.50570  1.0000
  C  Sn3       1.0  0.18333  0.47504  0.44462  1.0000
  C  Sn4       1.0  0.20382  0.42918  0.43397  1.0000
  C   C61       1.0  0.21713  0.40156  0.48474  1.0000
  C   C62       1.0  0.21034  0.41902  0.54566  1.0000
  H   H31       1.0  0.18486  0.47775  0.60327  1.0000
  O  Te3       1.0  0.16970  0.50335  0.39478  1.0000
  O  Te4       1.0  0.21085  0.41122  0.37341  1.0000
  H   H32       1.0  0.22074  0.39741  0.58470  1.0000
  Mg  Mg2       1.0  0.18650  0.46323  0.32078  1.0000
  C   C63       1.0  0.41725  0.43170  0.21594  1.0000
  C   C64       1.0  0.42110  0.39474  0.16506  1.0000
  C  Sn5       1.0  0.39881  0.35456  0.15034  1.0000
  C  Sn6       1.0  0.37221  0.35145  0.18732  1.0000
  C   C65       1.0  0.36857  0.38865  0.23809  1.0000
  C   C66       1.0  0.39101  0.42868  0.25241  1.0000
  H   H33       1.0  0.43461  0.46270  0.22700  1.0000
  O  Te5       1.0  0.40302  0.31794  0.09937  1.0000
  O  Te6       1.0  0.34958  0.31171  0.17364  1.0000
  H   H34       1.0  0.38802  0.45732  0.29178  1.0000
  Mg  Mg3       1.0  0.36574  0.27103  0.09944  1.0000
  C   C67       1.0  0.29116  0.29527  0.37605  1.0000
  C   C68       1.0  0.30167  0.34101  0.34008  1.0000
  C  Sn7       1.0  0.29286  0.39711  0.35427  1.0000
  C  Sn8       1.0  0.27316  0.40747  0.40547  1.0000
  C   C69       1.0  0.26278  0.36142  0.44120  1.0000
  C   C70       1.0  0.27174  0.30545  0.42657  1.0000
  H   H35       1.0  0.29811  0.25197  0.36476  1.0000
  O  Te7       1.0  0.30356  0.44231  0.31783  1.0000
  O  Te8       1.0  0.26399  0.46311  0.42070  1.0000
  H   H36       1.0  0.26362  0.27005  0.45446  1.0000
  Mg  Mg4       1.0  0.28465  0.51054  0.35710  1.0000
  C   C71       1.0  0.08293  0.06524  0.47453  1.0000
  C   C72       1.0  0.08013  0.01625  0.51145  1.0000
  C  Sn9       1.0  0.10071  0.00582  0.55939  1.0000
  C  Sn10      1.0  0.12451  0.04526  0.57045  1.0000
  C   C73       1.0  0.12710  0.09416  0.53328  1.0000
  C   C74       1.0  0.10638  0.10417  0.48542  1.0000
  H   H37       1.0  0.06690  0.07300  0.43752  1.0000
  O  Te9       1.0  0.09711  0.95665  0.59582  1.0000
  O  Te10      1.0  0.14538  0.03590  0.61806  1.0000
  H   H38       1.0  0.10854  0.14212  0.45687  1.0000
  Mg  Mg5       1.0  0.13119  0.96271  0.65513  1.0000
  C   C75       1.0  0.19919  0.27670  0.55596  1.0000
  C   C76       1.0  0.21571  0.29885  0.50586  1.0000
  C  Sn11      1.0  0.20930  0.28144  0.44488  1.0000
  C  Sn12      1.0  0.18591  0.24110  0.43402  1.0000
  C   C77       1.0  0.16950  0.21922  0.48446  1.0000
  C   C78       1.0  0.17611  0.23694  0.54528  1.0000
  H   H39       1.0  0.20429  0.29043  0.60302  1.0000
  O  Te11      1.0  0.22603  0.30398  0.39536  1.0000
  O  Te12      1.0  0.17903  0.22297  0.37355  1.0000
  H   H40       1.0  0.16330  0.21981  0.58406  1.0000
  Mg  Mg6       1.0  0.20818  0.26599  0.32139  1.0000
  C   C79       1.0  0.40740  0.42428  0.73317  1.0000
  C   C80       1.0  0.38157  0.39004  0.72946  1.0000
  C  Sn13      1.0  0.37446  0.35210  0.77763  1.0000
  C  Sn14      1.0  0.39361  0.34848  0.83044  1.0000
  C   C81       1.0  0.41938  0.38295  0.83372  1.0000
  C   C82       1.0  0.42629  0.42076  0.78525  1.0000
  H   H41       1.0  0.41274  0.45356  0.69568  1.0000
  O  Te13      1.0  0.34857  0.31818  0.77317  1.0000
  O  Te14      1.0  0.38703  0.31095  0.87926  1.0000
  H   H42       1.0  0.44628  0.44729  0.78815  1.0000
  Mg  Mg7       1.0  0.34919  0.27358  0.85164  1.0000
  C   C83       1.0  0.28766  0.29457  0.61044  1.0000
  C   C84       1.0  0.30388  0.34017  0.63626  1.0000
  C  Sn15      1.0  0.29796  0.39640  0.61761  1.0000
  C  Sn16      1.0  0.27537  0.40704  0.57228  1.0000
  C   C85       1.0  0.25926  0.36112  0.54676  1.0000
  C   C86       1.0  0.26537  0.30502  0.56575  1.0000
  H   H43       1.0  0.29237  0.25116  0.62515  1.0000
  O  Te15      1.0  0.31438  0.44146  0.64386  1.0000
  O  Te16      1.0  0.26899  0.46282  0.55281  1.0000
  H   H44       1.0  0.25279  0.26972  0.54578  1.0000
  Mg  Mg8       1.0  0.29745  0.50997  0.60221  1.0000
  C   C87       1.0  0.61315  0.34728  0.15234  1.0000
  C   C88       1.0  0.58559  0.37646  0.15027  1.0000
  C  Sn17      1.0  0.57853  0.41762  0.19556  1.0000
  C  Sn18      1.0  0.59950  0.42971  0.24374  1.0000
  C   C89       1.0  0.62703  0.40030  0.24537  1.0000
  C   C90       1.0  0.63386  0.35919  0.19983  1.0000
  H   H45       1.0  0.61845  0.31548  0.11708  1.0000
  O  Te17      1.0  0.55088  0.44637  0.19281  1.0000
  O  Te18      1.0  0.59303  0.47065  0.28958  1.0000
  H   H46       1.0  0.65522  0.33662  0.20142  1.0000
  Mg  Mg9       1.0  0.55238  0.49846  0.26592  1.0000
  C   C91       1.0  0.71655  0.29930  0.40645  1.0000
  C   C92       1.0  0.73540  0.34355  0.42683  1.0000
  C  Sn19      1.0  0.73196  0.39893  0.40322  1.0000
  C  Sn20      1.0  0.70920  0.41008  0.35839  1.0000
  C   C93       1.0  0.69045  0.36553  0.33834  1.0000
  C   C94       1.0  0.69410  0.31027  0.36225  1.0000
  H   H47       1.0  0.71936  0.25655  0.42497  1.0000
  O  Te19      1.0  0.75099  0.44264  0.42407  1.0000
  O  Te20      1.0  0.70527  0.46503  0.33404  1.0000
  H   H48       1.0  0.67949  0.27602  0.34650  1.0000
  Mg  Mg10      1.0  0.73679  0.51041  0.37703  1.0000
  C   C95       1.0  0.90844  0.09167  0.47142  1.0000
  C   C96       1.0  0.88156  0.09451  0.50571  1.0000
  C  Sn21      1.0  0.87575  0.05470  0.55281  1.0000
  C  Sn22      1.0  0.89731  0.01130  0.56572  1.0000
  C   C97       1.0  0.92414  0.00885  0.53119  1.0000
  C   C98       1.0  0.92972  0.04889  0.48415  1.0000
  H   H49       1.0  0.91277  0.12267  0.43505  1.0000
  O  Te21      1.0  0.84878  0.05815  0.58660  1.0000
  O  Te22      1.0  0.89159  0.97098  0.61256  1.0000
  H   H50       1.0  0.95054  0.04670  0.45763  1.0000
  Mg  Mg11      1.0  0.85147  0.99341  0.64580  1.0000
  C   C99       1.0  0.81783  0.25961  0.54509  1.0000
  C   C100      1.0  0.82569  0.22238  0.49643  1.0000
  C  Sn23      1.0  0.81233  0.22823  0.43782  1.0000
  C  Sn24      1.0  0.79072  0.27221  0.42789  1.0000
  C   C101      1.0  0.78304  0.30926  0.47686  1.0000
  C   C102      1.0  0.79653  0.30302  0.53533  1.0000
  H   H51       1.0  0.82829  0.25480  0.59032  1.0000
  O  Te23      1.0  0.82042  0.19065  0.38972  1.0000
  O  Te24      1.0  0.77703  0.27903  0.36977  1.0000
  H   H52       1.0  0.79047  0.33187  0.57299  1.0000
  Mg  Mg12      1.0  0.79551  0.21720  0.31884  1.0000
  C   C103      1.0  0.59272  0.41345  0.73196  1.0000
  C   C104      1.0  0.62048  0.38483  0.73222  1.0000
  C  Sn25      1.0  0.62767  0.34750  0.78081  1.0000
  C  Sn26      1.0  0.60664  0.33873  0.82998  1.0000
  C   C105      1.0  0.57893  0.36753  0.82927  1.0000
  C   C106      1.0  0.57196  0.40480  0.78042  1.0000
  H   H53       1.0  0.58733  0.44226  0.69415  1.0000
  O  Te25      1.0  0.65551  0.31927  0.78036  1.0000
  O  Te26      1.0  0.61325  0.30164  0.87911  1.0000
  H   H54       1.0  0.55046  0.42692  0.78021  1.0000
  Mg  Mg13      1.0  0.65413  0.27301  0.85766  1.0000
  C   C107      1.0  0.71741  0.40904  0.57249  1.0000
  C   C108      1.0  0.73620  0.36566  0.54939  1.0000
  C  Sn27      1.0  0.73332  0.30960  0.57137  1.0000
  C  Sn28      1.0  0.71119  0.29685  0.61732  1.0000
  C   C109      1.0  0.69248  0.34055  0.64010  1.0000
  C   C110      1.0  0.69556  0.39650  0.61779  1.0000
  H   H55       1.0  0.71978  0.45233  0.55521  1.0000
  O  Te27      1.0  0.75230  0.26677  0.54780  1.0000
  O  Te28      1.0  0.70782  0.24118  0.64008  1.0000
  H   H56       1.0  0.68099  0.43007  0.63566  1.0000
  Mg  Mg14      1.0  0.73901  0.19750  0.59350  1.0000
  C   C111      1.0  0.91641  0.64794  0.47095  1.0000
  C   C112      1.0  0.91943  0.69705  0.50793  1.0000
  C  Sn29      1.0  0.89931  0.70738  0.55709  1.0000
  C  Sn30      1.0  0.87575  0.66772  0.56935  1.0000
  C   C113      1.0  0.87293  0.61869  0.53211  1.0000
  C   C114      1.0  0.89319  0.60879  0.48302  1.0000
  H   H57       1.0  0.93209  0.64025  0.43299  1.0000
  O  Te29      1.0  0.90265  0.75667  0.59357  1.0000
  O  Te30      1.0  0.85534  0.67698  0.61820  1.0000
  H   H58       1.0  0.89085  0.57074  0.45442  1.0000
  Mg  Mg15      1.0  0.86920  0.75040  0.65481  1.0000
  C   C115      1.0  0.80626  0.46919  0.55537  1.0000
  C   C116      1.0  0.82541  0.48781  0.50758  1.0000
  C  Sn31      1.0  0.82199  0.46663  0.44696  1.0000
  C  Sn32      1.0  0.79894  0.42607  0.43408  1.0000
  C   C117      1.0  0.77989  0.40774  0.48220  1.0000
  C   C118      1.0  0.78352  0.42920  0.54270  1.0000
  H   H59       1.0  0.80905  0.48581  0.60218  1.0000
  O  Te31      1.0  0.84132  0.48568  0.39977  1.0000
  O  Te32      1.0  0.79502  0.40422  0.37390  1.0000
  H   H60       1.0  0.76867  0.41480  0.57968  1.0000
  Mg  Mg16      1.0  0.82701  0.44333  0.32527  1.0000
