data_image0
_chemical_formula_structural       C2H2C3HC4H4C3HC4H4C4H4C3NCHC4NCH4C2H2C3NCHC4NC3H2C2HNC4H2C6H4C3NC3HC4NCH2C4H2C5NCHC4NC3H2C2HNC4H2C2H4CHC4H6CHC4H2CHCHN2SnCSn2CSnTe4Mg2SnCSn2CSnTe4Mg2SnCSn2CSnTe4Mg2SnCSn2CSnTe4Mg2SnCSn2CSnTe4Mg2SnCSn2CSnTe4Mg2SnCSn2CSnTe4Mg2SnCSn2CSnTe4Mg2
_chemical_formula_sum              "C118 H60 N12 Sn32 Te32 Mg16"
_cell_length_a       44.2568
_cell_length_b       23.3236
_cell_length_c       21.4302
_cell_angle_alpha    90.1959
_cell_angle_beta     89.791
_cell_angle_gamma    89.9468

_symmetry_space_group_name_H-M    'P1'
_space_group_IT_number       1

loop_
  _space_group_symop_operation_xyz
  'x, y, z'

loop_
  _atom_site_type_symbol
  _atom_site_label
  _atom_site_symmetry_multiplicity
  _atom_site_fract_x
  _atom_site_fract_y
  _atom_site_fract_z
  _atom_site_occupancy
  C   C1        1.0  0.07875  0.65890  0.47651  1.0000
  C   C2        1.0  0.10156  0.61789  0.47730  1.0000
  H   H1        1.0  0.89679  0.74283  0.60151  1.0000
  H   H2        1.0  0.85686  0.66771  0.60468  1.0000
  C   C3        1.0  0.29516  0.30347  0.36351  1.0000
  C   C4        1.0  0.27409  0.30409  0.41187  1.0000
  C   C5        1.0  0.35135  0.38316  0.68625  1.0000
  H   H3        1.0  0.35514  0.41233  0.64677  1.0000
  C   C6        1.0  0.10371  0.00431  0.56888  1.0000
  C   C7        1.0  0.12594  0.04653  0.56965  1.0000
  C   C8        1.0  0.18306  0.24208  0.54730  1.0000
  C   C9        1.0  0.20495  0.28504  0.54693  1.0000
  H   H4        1.0  0.94212  0.05637  0.44599  1.0000
  H   H5        1.0  0.90124  0.13049  0.44229  1.0000
  H   H6        1.0  0.81763  0.21117  0.38274  1.0000
  H   H7        1.0  0.77740  0.28549  0.38582  1.0000
  C   C10       1.0  0.42311  0.41743  0.77167  1.0000
  C   C11       1.0  0.40033  0.41755  0.72703  1.0000
  C   C12       1.0  0.34942  0.38835  0.28955  1.0000
  H   H8        1.0  0.35223  0.42011  0.32720  1.0000
  C   C13       1.0  0.06370  0.80535  0.51903  1.0000
  C   C14       1.0  0.09441  0.82447  0.50400  1.0000
  C   C15       1.0  0.06487  0.90436  0.52089  1.0000
  C   C16       1.0  0.09508  0.88312  0.50511  1.0000
  H   H9        1.0  0.11295  0.79614  0.49183  1.0000
  H   H10       1.0  0.11422  0.91016  0.49385  1.0000
  H   H11       1.0  0.30431  0.26333  0.34567  1.0000
  H   H12       1.0  0.26693  0.26368  0.43223  1.0000
  C   C17       1.0  0.92341  0.05514  0.47904  1.0000
  C   C18       1.0  0.90080  0.09644  0.47690  1.0000
  C   C19       1.0  0.81213  0.23325  0.42612  1.0000
  C   C20       1.0  0.78958  0.27504  0.42830  1.0000
  H   H13       1.0  0.10392  0.96988  0.60300  1.0000
  H   H14       1.0  0.14373  0.04525  0.60458  1.0000
  H   H15       1.0  0.17290  0.22849  0.59115  1.0000
  H   H16       1.0  0.21193  0.30408  0.59099  1.0000
  C   C21       1.0  0.85029  0.57854  0.52670  1.0000
  C   C22       1.0  0.56601  0.38941  0.03962  1.0000
  C   C23       1.0  0.55605  0.38520  0.10290  1.0000
  N   N1        1.0  0.66994  0.35645  0.29363  1.0000
  C   C24       1.0  0.40426  0.41519  0.01936  1.0000
  H   H17       1.0  0.38700  0.42932  0.92422  1.0000
  C   C25       1.0  0.02341  0.72894  0.52358  1.0000
  C   C26       1.0  0.01390  0.67090  0.53819  1.0000
  C   C27       1.0  0.07776  0.70282  0.52190  1.0000
  C   C28       1.0  0.12357  0.61863  0.52469  1.0000
  N   N2        1.0  0.15035  0.53610  0.48576  1.0000
  C   C29       1.0  0.94371  0.75050  0.52154  1.0000
  H   H18       1.0  0.02869  0.63519  0.54855  1.0000
  H   H19       1.0  0.83280  0.58479  0.56277  1.0000
  H   H20       1.0  0.44292  0.44454  0.76616  1.0000
  H   H21       1.0  0.40229  0.44462  0.68593  1.0000
  C   C30       1.0  0.89653  0.70857  0.56700  1.0000
  C   C31       1.0  0.87421  0.66658  0.56851  1.0000
  H   H22       1.0  0.06168  0.65841  0.44012  1.0000
  H   H23       1.0  0.10299  0.58464  0.44166  1.0000
  C   C32       1.0  0.85276  0.13809  0.51978  1.0000
  C   C33       1.0  0.56638  0.38536  0.93799  1.0000
  C   C34       1.0  0.55674  0.37724  0.87508  1.0000
  N   N3        1.0  0.67276  0.34116  0.68641  1.0000
  C   C35       1.0  0.40454  0.41447  0.95540  1.0000
  H   H24       1.0  0.38642  0.43040  0.05001  1.0000
  C   C36       1.0  0.02562  0.98220  0.52901  1.0000
  C   C37       1.0  0.01677  0.03987  0.54727  1.0000
  C   C38       1.0  0.08022  0.00646  0.52487  1.0000
  C   C39       1.0  0.12577  0.09113  0.52563  1.0000
  N   N4        1.0  0.15087  0.17508  0.48653  1.0000
  C   C40       1.0  0.17304  0.21762  0.49082  1.0000
  C   C41       1.0  0.21801  0.30440  0.49094  1.0000
  C   C42       1.0  0.94568  0.96514  0.52371  1.0000
  H   H25       1.0  0.03193  0.07426  0.56038  1.0000
  H   H26       1.0  0.83667  0.13650  0.55905  1.0000
  C   C43       1.0  0.23994  0.35588  0.49083  1.0000
  C   C44       1.0  0.04612  0.85545  0.52986  1.0000
  H   H27       1.0  0.02293  0.85654  0.54545  1.0000
  N   N5        1.0  0.54872  0.37466  0.98919  1.0000
  C   C45       1.0  0.52550  0.37943  0.12113  1.0000
  C   C46       1.0  0.51448  0.36184  0.18261  1.0000
  C   C47       1.0  0.52632  0.37198  0.85677  1.0000
  C   C48       1.0  0.51562  0.35221  0.79587  1.0000
  H   H28       1.0  0.53009  0.33640  0.75870  1.0000
  H   H29       1.0  0.52886  0.34842  0.22066  1.0000
  C   C49       1.0  0.29364  0.40700  0.36028  1.0000
  C   C50       1.0  0.27200  0.40700  0.40777  1.0000
  C   C51       1.0  0.08006  0.05127  0.48073  1.0000
  C   C52       1.0  0.10267  0.09253  0.48057  1.0000
  C   C53       1.0  0.18494  0.23894  0.43458  1.0000
  C   C54       1.0  0.20730  0.28083  0.43482  1.0000
  H   H30       1.0  0.89698  0.97424  0.59986  1.0000
  H   H31       1.0  0.85734  0.05008  0.59860  1.0000
  H   H32       1.0  0.83460  0.23821  0.57793  1.0000
  H   H33       1.0  0.79546  0.31395  0.58059  1.0000
  C   C55       1.0  0.14767  0.57594  0.52745  1.0000
  C   C56       1.0  0.43351  0.39335  0.03865  1.0000
  C   C57       1.0  0.44302  0.38703  0.10182  1.0000
  N   N6        1.0  0.32746  0.35190  0.28998  1.0000
  C   C58       1.0  0.30575  0.35510  0.33769  1.0000
  C   C59       1.0  0.26167  0.35570  0.43435  1.0000
  C   C60       1.0  0.59553  0.40993  0.01996  1.0000
  H   H34       1.0  0.61361  0.42035  0.92447  1.0000
  C   C61       1.0  0.97417  0.73025  0.52391  1.0000
  C   C62       1.0  0.98295  0.67172  0.53849  1.0000
  C   C63       1.0  0.91956  0.70660  0.52166  1.0000
  C   C64       1.0  0.87400  0.62201  0.52410  1.0000
  N   N7        1.0  0.84976  0.53599  0.48805  1.0000
  C   C65       1.0  0.05403  0.74767  0.52119  1.0000
  H   H35       1.0  0.96780  0.63666  0.54924  1.0000
  H   H36       1.0  0.16353  0.58047  0.56667  1.0000
  C   C66       1.0  0.39454  0.34827  0.83235  1.0000
  C   C67       1.0  0.37217  0.34744  0.78720  1.0000
  C   C68       1.0  0.10006  0.70408  0.56843  1.0000
  C   C69       1.0  0.12242  0.66215  0.57025  1.0000
  H   H37       1.0  0.93679  0.66095  0.44124  1.0000
  H   H38       1.0  0.89610  0.58628  0.44341  1.0000
  C   C70       1.0  0.14946  0.13469  0.52749  1.0000
  C   C71       1.0  0.43390  0.39203  0.93701  1.0000
  C   C72       1.0  0.44382  0.38374  0.87419  1.0000
  C   C73       1.0  0.42032  0.38332  0.82541  1.0000
  C   C74       1.0  0.37464  0.38266  0.73421  1.0000
  N   N8        1.0  0.32795  0.35021  0.68893  1.0000
  C   C75       1.0  0.59578  0.40721  0.95606  1.0000
  H   H39       1.0  0.61318  0.42613  0.05009  1.0000
  C   C76       1.0  0.97636  0.98340  0.52830  1.0000
  C   C77       1.0  0.98580  0.04063  0.54678  1.0000
  C   C78       1.0  0.92216  0.01031  0.52306  1.0000
  C   C79       1.0  0.87672  0.09500  0.52004  1.0000
  N   N9        1.0  0.85018  0.17537  0.47574  1.0000
  C   C80       1.0  0.82785  0.21776  0.48039  1.0000
  C   C81       1.0  0.78270  0.30403  0.48407  1.0000
  C   C82       1.0  0.05614  0.96238  0.52496  1.0000
  H   H40       1.0  0.97100  0.07582  0.55943  1.0000
  H   H41       1.0  0.16620  0.13055  0.56513  1.0000
  C   C83       1.0  0.76065  0.35531  0.48708  1.0000
  C   C84       1.0  0.95365  0.85749  0.52921  1.0000
  H   H42       1.0  0.97690  0.85654  0.54419  1.0000
  N   N10       1.0  0.45106  0.37946  0.98814  1.0000
  C   C85       1.0  0.47332  0.38028  0.12043  1.0000
  C   C86       1.0  0.48355  0.36228  0.18218  1.0000
  C   C87       1.0  0.47421  0.37542  0.85622  1.0000
  C   C88       1.0  0.48473  0.35430  0.79557  1.0000
  H   H43       1.0  0.47006  0.34054  0.75810  1.0000
  H   H44       1.0  0.46861  0.34925  0.21972  1.0000
  C   C89       1.0  0.91930  0.66195  0.47705  1.0000
  C   C90       1.0  0.89675  0.62059  0.47790  1.0000
  H   H45       1.0  0.09922  0.73781  0.60352  1.0000
  H   H46       1.0  0.13932  0.66285  0.60704  1.0000
  H   H47       1.0  0.30068  0.44724  0.33928  1.0000
  H   H48       1.0  0.26282  0.44765  0.42406  1.0000
  C   C91       1.0  0.64898  0.37330  0.68481  1.0000
  H   H49       1.0  0.64469  0.40266  0.64571  1.0000
  C   C92       1.0  0.89792  0.00860  0.56569  1.0000
  C   C93       1.0  0.87576  0.05099  0.56478  1.0000
  C   C94       1.0  0.82149  0.24754  0.53631  1.0000
  C   C95       1.0  0.79948  0.29017  0.53755  1.0000
  H   H50       1.0  0.06223  0.05247  0.44592  1.0000
  H   H51       1.0  0.10310  0.12664  0.44605  1.0000
  H   H52       1.0  0.17644  0.22130  0.39102  1.0000
  H   H53       1.0  0.21647  0.29564  0.39060  1.0000
  H   H54       1.0  0.39285  0.32118  0.87340  1.0000
  H   H55       1.0  0.35248  0.31980  0.79149  1.0000
  C   C96       1.0  0.64885  0.39459  0.29113  1.0000
  H   H56       1.0  0.64681  0.42898  0.32620  1.0000
  C   C97       1.0  0.93499  0.80861  0.51936  1.0000
  C   C98       1.0  0.90471  0.82988  0.50472  1.0000
  C   C99       1.0  0.93596  0.90760  0.51985  1.0000
  C   C100      1.0  0.90532  0.88851  0.50465  1.0000
  H   H57       1.0  0.88554  0.80285  0.49377  1.0000
  H   H58       1.0  0.88674  0.91682  0.49329  1.0000
  C   C101      1.0  0.50032  0.38599  0.89299  1.0000
  H   H59       1.0  0.50050  0.40546  0.93875  1.0000
  C   C102      1.0  0.49965  0.39034  0.08366  1.0000
  H   H60       1.0  0.49992  0.40719  0.03679  1.0000
  N   N11       1.0  0.99900  0.76393  0.51431  1.0000
  N   N12       1.0  0.00085  0.94885  0.51736  1.0000
  C  Sn1       1.0  0.19644  0.42893  0.55261  1.0000
  C   C103      1.0  0.20961  0.40133  0.50130  1.0000
  C  Sn2       1.0  0.20629  0.42375  0.44135  1.0000
  C  Sn3       1.0  0.18947  0.47485  0.43250  1.0000
  C   C104      1.0  0.17631  0.50243  0.48379  1.0000
  C  Sn4       1.0  0.17961  0.48003  0.54375  1.0000
  O  Te1       1.0  0.20005  0.40575  0.61212  1.0000
  O  Te2       1.0  0.21966  0.39539  0.39078  1.0000
  O  Te3       1.0  0.18586  0.49802  0.37293  1.0000
  O  Te4       1.0  0.16626  0.50837  0.59431  1.0000
  Mg  Mg1       1.0  0.20836  0.44376  0.31880  1.0000
  Mg  Mg2       1.0  0.17756  0.46005  0.66631  1.0000
  C  Sn5       1.0  0.61634  0.34903  0.83413  1.0000
  C   C105      1.0  0.58975  0.38140  0.83504  1.0000
  C  Sn6       1.0  0.57917  0.40707  0.78052  1.0000
  C  Sn7       1.0  0.59549  0.40023  0.72390  1.0000
  C   C106      1.0  0.62206  0.36788  0.72301  1.0000
  C  Sn8       1.0  0.63266  0.34219  0.77751  1.0000
  O  Te5       1.0  0.62650  0.32375  0.88919  1.0000
  O  Te6       1.0  0.55253  0.43925  0.78259  1.0000
  O  Te7       1.0  0.58531  0.42556  0.66882  1.0000
  O  Te8       1.0  0.65928  0.31003  0.77546  1.0000
  Mg  Mg3       1.0  0.54784  0.46529  0.69533  1.0000
  Mg  Mg4       1.0  0.66398  0.28394  0.86268  1.0000
  C  Sn9       1.0  0.29545  0.29778  0.59720  1.0000
  C   C107      1.0  0.30908  0.34454  0.62673  1.0000
  C  Sn10      1.0  0.29720  0.39966  0.61983  1.0000
  C  Sn11      1.0  0.27114  0.40821  0.58267  1.0000
  C   C108      1.0  0.25752  0.36147  0.55317  1.0000
  C  Sn12      1.0  0.26939  0.30634  0.56004  1.0000
  O  Te9       1.0  0.30771  0.24306  0.60475  1.0000
  O  Te10      1.0  0.31123  0.44574  0.64979  1.0000
  O  Te11      1.0  0.25888  0.46299  0.57513  1.0000
  O  Te12      1.0  0.25537  0.26028  0.53011  1.0000
  Mg  Mg5       1.0  0.28605  0.51211  0.62531  1.0000
  Mg  Mg6       1.0  0.28052  0.19389  0.55459  1.0000
  C  Sn13      1.0  0.62864  0.36262  0.17053  1.0000
  C   C109      1.0  0.62939  0.39667  0.22428  1.0000
  C  Sn14      1.0  0.60323  0.42405  0.24569  1.0000
  C  Sn15      1.0  0.57574  0.41723  0.21270  1.0000
  C   C110      1.0  0.57499  0.38319  0.15899  1.0000
  C  Sn16      1.0  0.60114  0.35580  0.13754  1.0000
  O  Te13      1.0  0.65506  0.33565  0.14997  1.0000
  O  Te14      1.0  0.60455  0.45789  0.29954  1.0000
  O  Te15      1.0  0.54930  0.44423  0.23330  1.0000
  O  Te16      1.0  0.59983  0.32197  0.08373  1.0000
  Mg  Mg7       1.0  0.56253  0.48587  0.30904  1.0000
  Mg  Mg8       1.0  0.64183  0.29394  0.07420  1.0000
  C  Sn17      1.0  0.39924  0.44030  0.22943  1.0000
  C   C111      1.0  0.37320  0.40650  0.23145  1.0000
  C  Sn18      1.0  0.37095  0.35730  0.19441  1.0000
  C  Sn19      1.0  0.39525  0.34152  0.15455  1.0000
  C   C112      1.0  0.42127  0.37530  0.15256  1.0000
  C  Sn20      1.0  0.42354  0.42452  0.18957  1.0000
  O  Te17      1.0  0.40100  0.48930  0.26686  1.0000
  O  Te18      1.0  0.34469  0.32420  0.19721  1.0000
  O  Te19      1.0  0.39347  0.29247  0.11711  1.0000
  O  Te20      1.0  0.44979  0.45760  0.18679  1.0000
  Mg  Mg9       1.0  0.35304  0.26128  0.13733  1.0000
  Mg  Mg10      1.0  0.44146  0.52051  0.24667  1.0000
  C  Sn21      1.0  0.72119  0.29259  0.57024  1.0000
  C   C113      1.0  0.73151  0.34073  0.53791  1.0000
  C  Sn22      1.0  0.72550  0.39581  0.56058  1.0000
  C  Sn23      1.0  0.70886  0.40293  0.61676  1.0000
  C   C114      1.0  0.69856  0.35481  0.64906  1.0000
  C  Sn24      1.0  0.70455  0.29971  0.62642  1.0000
  O  Te21      1.0  0.72746  0.23793  0.54672  1.0000
  O  Te22      1.0  0.73604  0.44329  0.52743  1.0000
  O  Te23      1.0  0.70259  0.45765  0.64027  1.0000
  O  Te24      1.0  0.69402  0.25225  0.65954  1.0000
  Mg  Mg11      1.0  0.72177  0.50898  0.57837  1.0000
  Mg  Mg12      1.0  0.70830  0.18655  0.60867  1.0000
  C  Sn25      1.0  0.69856  0.30671  0.39232  1.0000
  C   C115      1.0  0.68917  0.35298  0.35593  1.0000
  C  Sn26      1.0  0.70645  0.40301  0.35329  1.0000
  C  Sn27      1.0  0.73369  0.40686  0.38769  1.0000
  C   C116      1.0  0.74307  0.36060  0.42403  1.0000
  C  Sn28      1.0  0.72581  0.31055  0.42672  1.0000
  O  Te25      1.0  0.68093  0.25711  0.39427  1.0000
  O  Te26      1.0  0.69659  0.44872  0.31660  1.0000
  O  Te27      1.0  0.75132  0.45651  0.38570  1.0000
  O  Te28      1.0  0.73565  0.26486  0.46336  1.0000
  Mg  Mg13      1.0  0.72842  0.50721  0.32901  1.0000
  Mg  Mg14      1.0  0.70385  0.20635  0.45097  1.0000
  C  Sn29      1.0  0.81384  0.45619  0.55439  1.0000
  C   C117      1.0  0.83057  0.47832  0.50458  1.0000
  C  Sn30      1.0  0.82146  0.46846  0.44314  1.0000
  C  Sn31      1.0  0.79506  0.43582  0.43123  1.0000
  C   C118      1.0  0.77835  0.41371  0.48102  1.0000
  C  Sn32      1.0  0.78744  0.42355  0.54248  1.0000
  O  Te29      1.0  0.82336  0.46658  0.61544  1.0000
  O  Te30      1.0  0.83856  0.49101  0.39410  1.0000
  O  Te31      1.0  0.78555  0.42543  0.37011  1.0000
  O  Te32      1.0  0.77036  0.40102  0.59150  1.0000
  Mg  Mg15      1.0  0.81637  0.46519  0.31904  1.0000
  Mg  Mg16      1.0  0.79251  0.42684  0.66657  1.0000
