data_image0
_chemical_formula_structural       C2H2C2H4C4NCHC4NC3H3C6H6C4H6C4NC3HC2NC3H3C2HNC4H2C4H2C6H2C2H4C4NC3HC4NCH3C4H4C6H4C6NCHC4NC3H3C2HNC4H2C4H2C2H6C4H2C4NCHC4NCH3C4H4C4H6C4NC3HC4NCH3C2HNC4H2C4H2C2H2C4H2C4NCHC2NC3H3C6H6C6H4C6NC3HC2NC3H3C2HNC4H2C4H2CHCHCHCHN4C2Sn2C2HTe2HMgC2Sn2C2HTe2HMgC2Sn2C2HTe2HMgC2Sn2C2HTe2HMgC2Sn2C2HTe2HMgC2Sn2C2HTe2HMgC2Sn2C2HTe2HMgC2Sn2C2HTe2HMgC2Sn2C2HTe2HMgC2Sn2C2HTe2HMgC2Sn2C2HTe2HMgC2Sn2C2HTe2HMgC2Sn2C2HTe2HMgC2Sn2C2HTe2HMgC2Sn2C2HTe2HMgC2Sn2C2HTe2HMg
_chemical_formula_sum              "C268 H152 N24 Sn32 Te32 Mg16"
_cell_length_a       44.4035
_cell_length_b       23.2369
_cell_length_c       21.3085
_cell_angle_alpha    89.789
_cell_angle_beta     90.1636
_cell_angle_gamma    90.1183

_symmetry_space_group_name_H-M    'P1'
_space_group_IT_number       1

loop_
  _space_group_symop_operation_xyz
  'x, y, z'

loop_
  _atom_site_type_symbol
  _atom_site_label
  _atom_site_symmetry_multiplicity
  _atom_site_fract_x
  _atom_site_fract_y
  _atom_site_fract_z
  _atom_site_occupancy
  C   C1        1.0  0.07851  0.65558  0.48872  1.0000
  C   C2        1.0  0.10122  0.61464  0.48713  1.0000
  H   H1        1.0  0.89559  0.74299  0.59656  1.0000
  H   H2        1.0  0.85532  0.66842  0.59703  1.0000
  C   C3        1.0  0.18281  0.76083  0.92810  1.0000
  C   C4        1.0  0.20560  0.71977  0.92828  1.0000
  H   H3        1.0  0.70289  0.44393  0.32986  1.0000
  H   H4        1.0  0.74194  0.44387  0.41234  1.0000
  H   H5        1.0  0.83000  0.77013  0.08447  1.0000
  H   H6        1.0  0.79227  0.69232  0.08644  1.0000
  C   C5        1.0  0.35280  0.38116  0.67950  1.0000
  C   C6        1.0  0.14861  0.42361  0.02749  1.0000
  C   C7        1.0  0.43339  0.60600  0.53670  1.0000
  C   C8        1.0  0.44253  0.61217  0.60057  1.0000
  N   N1        1.0  0.32768  0.64414  0.78750  1.0000
  C   C9        1.0  0.59411  0.58226  0.52304  1.0000
  H   H7        1.0  0.61243  0.56794  0.42816  1.0000
  C   C10       1.0  0.97555  0.27147  0.02583  1.0000
  C   C11       1.0  0.98466  0.32916  0.04402  1.0000
  C   C12       1.0  0.92151  0.29761  0.01863  1.0000
  C   C13       1.0  0.87643  0.38319  0.01622  1.0000
  N   N2        1.0  0.85206  0.46959  0.97822  1.0000
  C   C14       1.0  0.82895  0.51031  0.98347  1.0000
  C   C15       1.0  0.78271  0.59453  0.98769  1.0000
  C   C16       1.0  0.05503  0.25129  0.02813  1.0000
  H   H8        1.0  0.96975  0.36438  0.05541  1.0000
  H   H9        1.0  0.35652  0.41104  0.63999  1.0000
  H   H10       1.0  0.16566  0.41855  0.06471  1.0000
  C   C17       1.0  0.29343  0.70106  0.11294  1.0000
  C   C18       1.0  0.27147  0.69952  0.06615  1.0000
  C   C19       1.0  0.10234  0.00679  0.57192  1.0000
  C   C20       1.0  0.12454  0.04926  0.57131  1.0000
  C   C21       1.0  0.18310  0.24041  0.54015  1.0000
  C   C22       1.0  0.20483  0.28365  0.54026  1.0000
  H   H11       1.0  0.55811  0.55308  0.26744  1.0000
  H   H12       1.0  0.59877  0.55118  0.18742  1.0000
  H   H13       1.0  0.69399  0.55140  0.12840  1.0000
  H   H14       1.0  0.73203  0.55272  0.04397  1.0000
  H   H15       1.0  0.93976  0.05297  0.44435  1.0000
  H   H16       1.0  0.89880  0.12693  0.44531  1.0000
  C   C23       1.0  0.29824  0.40351  0.60796  1.0000
  C   C24       1.0  0.27584  0.40419  0.56211  1.0000
  C   C25       1.0  0.18514  0.52757  0.04477  1.0000
  C   C26       1.0  0.20701  0.57064  0.04325  1.0000
  H   H17       1.0  0.60856  0.32856  0.87168  1.0000
  H   H18       1.0  0.64713  0.32620  0.78636  1.0000
  H   H19       1.0  0.94176  0.34563  0.94288  1.0000
  H   H20       1.0  0.90158  0.42104  0.94046  1.0000
  H   H21       1.0  0.82933  0.52644  0.88395  1.0000
  H   H22       1.0  0.78909  0.60004  0.88745  1.0000
  C   C27       1.0  0.35167  0.39452  0.29092  1.0000
  C   C28       1.0  0.14698  0.86262  0.02366  1.0000
  C   C29       1.0  0.43425  0.60852  0.43444  1.0000
  C   C30       1.0  0.44420  0.61847  0.37156  1.0000
  N   N3        1.0  0.32918  0.65418  0.18134  1.0000
  C   C31       1.0  0.30714  0.65006  0.13428  1.0000
  C   C32       1.0  0.26123  0.64717  0.04100  1.0000
  C   C33       1.0  0.59469  0.58302  0.45869  1.0000
  H   H23       1.0  0.61128  0.56650  0.55492  1.0000
  C   C34       1.0  0.97494  0.01755  0.02907  1.0000
  C   C35       1.0  0.98358  0.95957  0.04721  1.0000
  N   N4        1.0  0.84716  0.83012  0.98046  1.0000
  C   C36       1.0  0.82505  0.78732  0.98514  1.0000
  C   C37       1.0  0.78130  0.69811  0.98787  1.0000
  C   C38       1.0  0.05449  0.03591  0.02880  1.0000
  H   H24       1.0  0.96827  0.92490  0.05899  1.0000
  H   H25       1.0  0.35393  0.42729  0.32780  1.0000
  H   H26       1.0  0.16433  0.86642  0.06047  1.0000
  C   C39       1.0  0.76033  0.64514  0.98957  1.0000
  C   C40       1.0  0.95380  0.14506  0.02790  1.0000
  H   H27       1.0  0.97675  0.14538  0.04465  1.0000
  N   N5        1.0  0.45103  0.62104  0.48657  1.0000
  C   C41       1.0  0.47269  0.61924  0.61991  1.0000
  C   C42       1.0  0.48288  0.63943  0.68135  1.0000
  C   C43       1.0  0.47467  0.62538  0.35445  1.0000
  C   C44       1.0  0.48591  0.64765  0.29459  1.0000
  H   H28       1.0  0.47176  0.66496  0.25759  1.0000
  H   H29       1.0  0.46801  0.65415  0.71818  1.0000
  C   C45       1.0  0.06492  0.80442  0.52713  1.0000
  C   C46       1.0  0.09519  0.82488  0.51140  1.0000
  C   C47       1.0  0.06474  0.90384  0.52509  1.0000
  C   C48       1.0  0.09505  0.88373  0.51010  1.0000
  H   H30       1.0  0.11404  0.79722  0.50049  1.0000
  H   H31       1.0  0.11370  0.91160  0.49778  1.0000
  C   C49       1.0  0.70884  0.40379  0.35318  1.0000
  C   C50       1.0  0.73106  0.40358  0.39967  1.0000
  C   C51       1.0  0.92305  0.34389  0.97567  1.0000
  C   C52       1.0  0.90078  0.38578  0.97411  1.0000
  C   C53       1.0  0.81901  0.53805  0.92834  1.0000
  C   C54       1.0  0.79628  0.57907  0.93064  1.0000
  H   H32       1.0  0.17688  0.51204  0.08977  1.0000
  H   H33       1.0  0.21572  0.58756  0.08721  1.0000
  C   C55       1.0  0.92193  0.05110  0.47921  1.0000
  C   C56       1.0  0.89925  0.09218  0.47966  1.0000
  H   H34       1.0  0.10217  0.97378  0.60825  1.0000
  H   H35       1.0  0.14196  0.04964  0.60738  1.0000
  H   H36       1.0  0.17255  0.22722  0.58396  1.0000
  H   H37       1.0  0.21120  0.30336  0.58457  1.0000
  C   C57       1.0  0.64977  0.61378  0.18659  1.0000
  C   C58       1.0  0.85141  0.57485  0.52466  1.0000
  C   C59       1.0  0.56612  0.39838  0.03844  1.0000
  C   C60       1.0  0.55658  0.39160  0.10212  1.0000
  N   N6        1.0  0.67211  0.34941  0.28900  1.0000
  C   C61       1.0  0.69458  0.35226  0.33529  1.0000
  C   C62       1.0  0.73943  0.35260  0.43039  1.0000
  C   C63       1.0  0.40443  0.41630  0.01779  1.0000
  H   H38       1.0  0.38630  0.42604  0.92177  1.0000
  C   C64       1.0  0.02528  0.72698  0.53359  1.0000
  C   C65       1.0  0.01595  0.66971  0.55315  1.0000
  C   C66       1.0  0.07958  0.70158  0.53181  1.0000
  C   C67       1.0  0.12556  0.61772  0.52958  1.0000
  N   N7        1.0  0.15025  0.53415  0.48799  1.0000
  C   C68       1.0  0.94576  0.74578  0.52463  1.0000
  H   H39       1.0  0.03069  0.63525  0.56825  1.0000
  H   H40       1.0  0.64561  0.58545  0.14618  1.0000
  H   H41       1.0  0.83296  0.58306  0.55784  1.0000
  C   C69       1.0  0.60577  0.35472  0.82961  1.0000
  C   C70       1.0  0.62721  0.35321  0.78237  1.0000
  C   C71       1.0  0.81795  0.75888  0.04173  1.0000
  C   C72       1.0  0.79671  0.71482  0.04258  1.0000
  H   H42       1.0  0.30810  0.44371  0.62423  1.0000
  H   H43       1.0  0.26884  0.44513  0.54202  1.0000
  H   H44       1.0  0.17395  0.77823  0.88438  1.0000
  H   H45       1.0  0.21448  0.70474  0.88379  1.0000
  C   C73       1.0  0.57801  0.58003  0.27295  1.0000
  C   C74       1.0  0.60076  0.57928  0.22806  1.0000
  C   C75       1.0  0.70404  0.59196  0.11356  1.0000
  C   C76       1.0  0.72576  0.59280  0.06657  1.0000
  C   C77       1.0  0.89683  0.70642  0.56498  1.0000
  C   C78       1.0  0.87433  0.66460  0.56513  1.0000
  H   H46       1.0  0.30076  0.74176  0.13292  1.0000
  H   H47       1.0  0.26192  0.73974  0.04921  1.0000
  H   H48       1.0  0.05978  0.65340  0.45580  1.0000
  H   H49       1.0  0.10088  0.57969  0.45325  1.0000
  C   C79       1.0  0.64715  0.60717  0.79546  1.0000
  C   C80       1.0  0.85228  0.13262  0.52676  1.0000
  C   C81       1.0  0.56615  0.39768  0.93608  1.0000
  C   C82       1.0  0.55643  0.38974  0.87281  1.0000
  C   C83       1.0  0.57963  0.38887  0.82321  1.0000
  C   C84       1.0  0.62361  0.38671  0.72757  1.0000
  N   N8        1.0  0.66958  0.35357  0.68082  1.0000
  C   C85       1.0  0.40432  0.41400  0.95350  1.0000
  H   H50       1.0  0.38653  0.43063  0.04835  1.0000
  C   C86       1.0  0.02526  0.98129  0.52907  1.0000
  C   C87       1.0  0.01612  0.03952  0.54469  1.0000
  C   C88       1.0  0.07939  0.00683  0.52630  1.0000
  C   C89       1.0  0.12489  0.09185  0.52415  1.0000
  N   N9        1.0  0.15115  0.17308  0.47949  1.0000
  C   C90       1.0  0.17355  0.21542  0.48326  1.0000
  C   C91       1.0  0.21827  0.30290  0.48434  1.0000
  C   C92       1.0  0.94593  0.96138  0.52281  1.0000
  H   H51       1.0  0.03098  0.07498  0.55625  1.0000
  H   H52       1.0  0.64491  0.57315  0.83126  1.0000
  H   H53       1.0  0.83645  0.12935  0.56631  1.0000
  C   C93       1.0  0.23996  0.35477  0.48539  1.0000
  C   C94       1.0  0.04670  0.85409  0.53577  1.0000
  H   H54       1.0  0.02366  0.85431  0.55164  1.0000
  N   N10       1.0  0.54867  0.38543  0.98740  1.0000
  C   C95       1.0  0.52628  0.38626  0.12071  1.0000
  C   C96       1.0  0.51552  0.36688  0.18211  1.0000
  C   C97       1.0  0.52608  0.38182  0.85469  1.0000
  C   C98       1.0  0.51568  0.35943  0.79422  1.0000
  H   H55       1.0  0.53038  0.34428  0.75736  1.0000
  H   H56       1.0  0.52991  0.35204  0.21999  1.0000
  C   C99       1.0  0.93577  0.19459  0.01630  1.0000
  C   C100      1.0  0.90561  0.17399  0.99963  1.0000
  C   C101      1.0  0.93579  0.09526  0.01820  1.0000
  C   C102      1.0  0.90563  0.11511  0.00085  1.0000
  H   H57       1.0  0.88688  0.20141  0.98661  1.0000
  H   H58       1.0  0.88698  0.08699  0.98906  1.0000
  C   C103      1.0  0.18294  0.52940  0.93145  1.0000
  C   C104      1.0  0.20492  0.57212  0.93049  1.0000
  H   H59       1.0  0.69312  0.26056  0.34986  1.0000
  H   H60       1.0  0.73089  0.26122  0.43578  1.0000
  H   H61       1.0  0.89614  0.26004  0.09459  1.0000
  H   H62       1.0  0.85667  0.33591  0.09316  1.0000
  H   H63       1.0  0.82460  0.50844  0.08455  1.0000
  H   H64       1.0  0.78417  0.58095  0.08781  1.0000
  C   C105      1.0  0.07935  0.05036  0.47995  1.0000
  C   C106      1.0  0.10194  0.09178  0.47840  1.0000
  C   C107      1.0  0.18591  0.23641  0.42694  1.0000
  C   C108      1.0  0.20810  0.27886  0.42775  1.0000
  H   H65       1.0  0.89887  0.96767  0.60190  1.0000
  H   H66       1.0  0.85901  0.04282  0.60504  1.0000
  C   C109      1.0  0.35283  0.62202  0.17883  1.0000
  C   C110      1.0  0.14984  0.57542  0.52840  1.0000
  C   C111      1.0  0.43414  0.39735  0.03754  1.0000
  C   C112      1.0  0.44393  0.39274  0.10104  1.0000
  N   N11       1.0  0.33014  0.35708  0.29098  1.0000
  C   C113      1.0  0.59555  0.41942  0.01938  1.0000
  H   H67       1.0  0.61328  0.43331  0.92384  1.0000
  C   C114      1.0  0.97618  0.72664  0.53069  1.0000
  C   C115      1.0  0.98509  0.66955  0.55157  1.0000
  C   C116      1.0  0.92183  0.70136  0.52486  1.0000
  C   C117      1.0  0.87581  0.61713  0.52438  1.0000
  N   N12       1.0  0.85119  0.53120  0.48731  1.0000
  C   C118      1.0  0.05583  0.74628  0.53111  1.0000
  H   H68       1.0  0.97006  0.63488  0.56499  1.0000
  H   H69       1.0  0.35722  0.59353  0.13873  1.0000
  H   H70       1.0  0.16808  0.58138  0.56293  1.0000
  C   C119      1.0  0.29368  0.29996  0.61493  1.0000
  C   C120      1.0  0.27177  0.30109  0.56801  1.0000
  C   C121      1.0  0.18149  0.75760  0.04145  1.0000
  C   C122      1.0  0.20395  0.71588  0.04106  1.0000
  H   H71       1.0  0.55581  0.44800  0.76269  1.0000
  H   H72       1.0  0.59491  0.44783  0.67943  1.0000
  H   H73       1.0  0.81657  0.79032  0.88597  1.0000
  H   H74       1.0  0.77783  0.71298  0.88812  1.0000
  C   C123      1.0  0.29715  0.59740  0.10902  1.0000
  C   C124      1.0  0.27455  0.59629  0.06343  1.0000
  C   C125      1.0  0.10383  0.70434  0.57442  1.0000
  C   C126      1.0  0.12634  0.66265  0.57370  1.0000
  H   H75       1.0  0.60883  0.67619  0.37523  1.0000
  H   H76       1.0  0.64902  0.67628  0.29339  1.0000
  H   H77       1.0  0.70363  0.73431  0.14982  1.0000
  H   H78       1.0  0.74144  0.73584  0.06414  1.0000
  H   H79       1.0  0.94267  0.64942  0.45340  1.0000
  H   H80       1.0  0.90171  0.57542  0.45252  1.0000
  C   C127      1.0  0.34972  0.60799  0.78897  1.0000
  C   C128      1.0  0.14901  0.13469  0.52330  1.0000
  C   C129      1.0  0.43395  0.39365  0.93543  1.0000
  C   C130      1.0  0.44378  0.38501  0.87241  1.0000
  N   N13       1.0  0.32974  0.34728  0.68177  1.0000
  C   C131      1.0  0.30767  0.35106  0.63487  1.0000
  C   C132      1.0  0.26208  0.35320  0.54130  1.0000
  C   C133      1.0  0.59553  0.41904  0.95501  1.0000
  H   H81       1.0  0.61336  0.43382  0.05048  1.0000
  C   C134      1.0  0.97625  0.98119  0.52757  1.0000
  C   C135      1.0  0.98527  0.03943  0.54398  1.0000
  C   C136      1.0  0.92194  0.00552  0.52307  1.0000
  C   C137      1.0  0.87627  0.08972  0.52505  1.0000
  N   N14       1.0  0.84955  0.17142  0.48359  1.0000
  C   C138      1.0  0.05565  0.96193  0.52692  1.0000
  H   H82       1.0  0.97036  0.07481  0.55489  1.0000
  H   H83       1.0  0.35249  0.57658  0.82737  1.0000
  H   H84       1.0  0.16551  0.13185  0.56184  1.0000
  C   C139      1.0  0.76069  0.35243  0.48779  1.0000
  C   C140      1.0  0.95495  0.85352  0.52985  1.0000
  H   H85       1.0  0.97776  0.85343  0.54743  1.0000
  N   N15       1.0  0.45164  0.38376  0.98690  1.0000
  C   C141      1.0  0.47430  0.38703  0.11991  1.0000
  C   C142      1.0  0.48469  0.36746  0.18164  1.0000
  C   C143      1.0  0.47413  0.37924  0.85457  1.0000
  C   C144      1.0  0.48488  0.35778  0.79423  1.0000
  H   H86       1.0  0.47050  0.34092  0.75745  1.0000
  H   H87       1.0  0.46994  0.35328  0.21908  1.0000
  C   C145      1.0  0.06403  0.19314  0.02561  1.0000
  C   C146      1.0  0.09443  0.17274  0.01132  1.0000
  C   C147      1.0  0.06383  0.09383  0.02604  1.0000
  C   C148      1.0  0.09429  0.11390  0.01153  1.0000
  H   H88       1.0  0.11336  0.20031  0.99997  1.0000
  H   H89       1.0  0.11305  0.08601  0.00052  1.0000
  C   C149      1.0  0.92349  0.65326  0.48473  1.0000
  C   C150      1.0  0.90077  0.61208  0.48407  1.0000
  H   H90       1.0  0.10454  0.73898  0.60858  1.0000
  H   H91       1.0  0.14478  0.66449  0.60750  1.0000
  C   C151      1.0  0.70374  0.30061  0.36431  1.0000
  C   C152      1.0  0.72511  0.30127  0.41209  1.0000
  C   C153      1.0  0.81052  0.76935  0.92986  1.0000
  C   C154      1.0  0.78882  0.72596  0.93148  1.0000
  H   H92       1.0  0.17144  0.77076  0.08562  1.0000
  H   H93       1.0  0.21136  0.69704  0.08526  1.0000
  C   C155      1.0  0.64617  0.38639  0.67775  1.0000
  C   C156      1.0  0.85244  0.42603  0.01609  1.0000
  C   C157      1.0  0.56497  0.60509  0.54094  1.0000
  C   C158      1.0  0.55500  0.61226  0.60412  1.0000
  N   N16       1.0  0.66833  0.64528  0.79740  1.0000
  C   C159      1.0  0.40458  0.58322  0.51602  1.0000
  H   H94       1.0  0.38801  0.56940  0.41949  1.0000
  C   C160      1.0  0.02461  0.27085  0.02958  1.0000
  C   C161      1.0  0.01550  0.32880  0.04636  1.0000
  N   N17       1.0  0.15021  0.46388  0.98566  1.0000
  C   C162      1.0  0.17292  0.50567  0.98860  1.0000
  C   C163      1.0  0.21762  0.59332  0.98634  1.0000
  C   C164      1.0  0.94503  0.25258  0.02000  1.0000
  H   H95       1.0  0.03036  0.36369  0.05978  1.0000
  H   H96       1.0  0.64178  0.41489  0.63736  1.0000
  H   H97       1.0  0.83419  0.41841  0.04998  1.0000
  C   C165      1.0  0.60675  0.64898  0.33400  1.0000
  C   C166      1.0  0.62914  0.64913  0.28864  1.0000
  C   C167      1.0  0.70988  0.69484  0.12591  1.0000
  C   C168      1.0  0.73115  0.69530  0.07800  1.0000
  C   C169      1.0  0.89878  0.00262  0.56784  1.0000
  C   C170      1.0  0.87651  0.04471  0.56941  1.0000
  H   H98       1.0  0.30660  0.55730  0.12667  1.0000
  H   H99       1.0  0.26713  0.55504  0.04495  1.0000
  H   H100      1.0  0.06161  0.05015  0.44463  1.0000
  H   H101      1.0  0.10247  0.12470  0.44198  1.0000
  H   H102      1.0  0.17795  0.21850  0.38281  1.0000
  H   H103      1.0  0.21743  0.29403  0.38359  1.0000
  C   C171      1.0  0.57588  0.42159  0.76794  1.0000
  C   C172      1.0  0.59772  0.42114  0.72119  1.0000
  C   C173      1.0  0.89717  0.29505  0.06066  1.0000
  C   C174      1.0  0.87515  0.33757  0.05976  1.0000
  C   C175      1.0  0.81612  0.52694  0.04099  1.0000
  C   C176      1.0  0.79343  0.56831  0.04275  1.0000
  H   H104      1.0  0.30078  0.25959  0.63620  1.0000
  H   H105      1.0  0.26198  0.26077  0.55216  1.0000
  H   H106      1.0  0.17312  0.51329  0.88810  1.0000
  H   H107      1.0  0.21214  0.58959  0.88559  1.0000
  C   C177      1.0  0.65079  0.38710  0.28913  1.0000
  C   C178      1.0  0.85094  0.86606  0.02587  1.0000
  C   C179      1.0  0.56584  0.60606  0.43869  1.0000
  C   C180      1.0  0.55677  0.61449  0.37504  1.0000
  C   C181      1.0  0.58067  0.61465  0.32680  1.0000
  C   C182      1.0  0.62653  0.61414  0.23501  1.0000
  N   N18       1.0  0.67335  0.64630  0.19009  1.0000
  C   C183      1.0  0.69530  0.64342  0.14314  1.0000
  C   C184      1.0  0.73962  0.64439  0.04754  1.0000
  C   C185      1.0  0.40519  0.58450  0.45167  1.0000
  H   H108      1.0  0.38688  0.56675  0.54608  1.0000
  C   C186      1.0  0.02393  0.01695  0.03148  1.0000
  C   C187      1.0  0.01443  0.95910  0.04871  1.0000
  N   N19       1.0  0.14818  0.82314  0.98124  1.0000
  C   C188      1.0  0.17085  0.78146  0.98469  1.0000
  C   C189      1.0  0.21685  0.69682  0.98471  1.0000
  C   C190      1.0  0.94474  0.03729  0.02377  1.0000
  H   H109      1.0  0.02904  0.92374  0.06193  1.0000
  H   H110      1.0  0.64912  0.41980  0.32620  1.0000
  H   H111      1.0  0.83593  0.86667  0.06692  1.0000
  C   C191      1.0  0.23900  0.64575  0.98513  1.0000
  C   C192      1.0  0.04574  0.14362  0.03516  1.0000
  H   H112      1.0  0.02245  0.14362  0.04956  1.0000
  N   N20       1.0  0.54818  0.61921  0.48925  1.0000
  C   C193      1.0  0.52464  0.61937  0.62153  1.0000
  C   C194      1.0  0.51370  0.63954  0.68230  1.0000
  C   C195      1.0  0.52664  0.62272  0.35592  1.0000
  C   C196      1.0  0.51671  0.64575  0.29531  1.0000
  H   H113      1.0  0.53170  0.66105  0.25878  1.0000
  H   H114      1.0  0.52799  0.65445  0.72018  1.0000
  C   C197      1.0  0.93688  0.80389  0.51914  1.0000
  C   C198      1.0  0.90685  0.82424  0.50127  1.0000
  C   C199      1.0  0.93703  0.90323  0.51860  1.0000
  C   C200      1.0  0.90690  0.88310  0.50127  1.0000
  H   H115      1.0  0.88816  0.79657  0.48867  1.0000
  H   H116      1.0  0.88834  0.91109  0.48861  1.0000
  C   C201      1.0  0.50027  0.61053  0.39142  1.0000
  H   H117      1.0  0.49970  0.58939  0.43663  1.0000
  C   C202      1.0  0.49886  0.60749  0.58391  1.0000
  H   H118      1.0  0.49916  0.58836  0.53786  1.0000
  C   C203      1.0  0.50004  0.39364  0.89095  1.0000
  H   H119      1.0  0.49975  0.41380  0.93650  1.0000
  C   C204      1.0  0.50034  0.39849  0.08333  1.0000
  H   H120      1.0  0.50058  0.41724  0.03687  1.0000
  N   N21       1.0  0.00086  0.76053  0.51953  1.0000
  N   N22       1.0  0.00079  0.94687  0.51830  1.0000
  N   N23       1.0  0.00008  0.23705  0.01671  1.0000
  N   N24       1.0  0.99974  0.05141  0.01916  1.0000
  C   C205      1.0  0.79626  0.44019  0.55458  1.0000
  C   C206      1.0  0.78343  0.41202  0.50318  1.0000
  C  Sn1       1.0  0.79464  0.42150  0.44281  1.0000
  C  Sn2       1.0  0.81915  0.45991  0.43389  1.0000
  C   C207      1.0  0.83184  0.48785  0.48563  1.0000
  C   C208      1.0  0.82045  0.47806  0.54583  1.0000
  H   H121      1.0  0.78746  0.43259  0.60117  1.0000
  O  Te1       1.0  0.78155  0.39302  0.39196  1.0000
  O  Te2       1.0  0.83080  0.47016  0.37407  1.0000
  H   H122      1.0  0.83040  0.49984  0.58563  1.0000
  Mg  Mg1       1.0  0.80535  0.42115  0.31955  1.0000
  C   C209      1.0  0.29254  0.29790  0.37247  1.0000
  C   C210      1.0  0.30338  0.34481  0.33802  1.0000
  C  Sn3       1.0  0.29388  0.40055  0.35213  1.0000
  C  Sn4       1.0  0.27315  0.40936  0.40169  1.0000
  C   C211      1.0  0.26244  0.36216  0.43591  1.0000
  C   C212      1.0  0.27209  0.30656  0.42138  1.0000
  H   H123      1.0  0.30001  0.25489  0.36126  1.0000
  O  Te3       1.0  0.30493  0.44693  0.31722  1.0000
  O  Te4       1.0  0.26329  0.46462  0.41681  1.0000
  H   H124      1.0  0.26371  0.27025  0.44810  1.0000
  Mg  Mg2       1.0  0.28479  0.51406  0.35565  1.0000
  C   C213      1.0  0.09417  0.37600  0.97479  1.0000
  C   C214      1.0  0.11668  0.38714  0.01679  1.0000
  C  Sn5       1.0  0.12151  0.34765  0.06537  1.0000
  C  Sn6       1.0  0.10204  0.29953  0.07189  1.0000
  C   C215      1.0  0.07822  0.29212  0.02961  1.0000
  C   C216      1.0  0.07495  0.32853  0.98118  1.0000
  H   H125      1.0  0.09059  0.40676  0.93730  1.0000
  O  Te5       1.0  0.14547  0.35607  0.10693  1.0000
  O  Te6       1.0  0.10635  0.25939  0.12001  1.0000
  H   H126      1.0  0.05647  0.32249  0.94865  1.0000
  Mg  Mg3       1.0  0.14212  0.28955  0.16490  1.0000
  C   C217      1.0  0.62455  0.64945  0.67738  1.0000
  C   C218      1.0  0.62442  0.62120  0.73539  1.0000
  C  Sn7       1.0  0.60068  0.58445  0.75134  1.0000
  C  Sn8       1.0  0.57665  0.57591  0.70831  1.0000
  C   C219      1.0  0.57700  0.60434  0.65038  1.0000
  C   C220      1.0  0.60086  0.64103  0.63491  1.0000
  H   H127      1.0  0.64302  0.67782  0.66540  1.0000
  O  Te7       1.0  0.60091  0.55658  0.80950  1.0000
  O  Te8       1.0  0.55265  0.53941  0.72304  1.0000
  H   H128      1.0  0.60096  0.66287  0.58997  1.0000
  Mg  Mg4       1.0  0.56314  0.51109  0.80807  1.0000
  C   C221      1.0  0.61308  0.34760  0.14857  1.0000
  C   C222      1.0  0.58618  0.37871  0.14848  1.0000
  C  Sn9       1.0  0.58012  0.41774  0.19651  1.0000
  C  Sn10      1.0  0.60143  0.42569  0.24548  1.0000
  C   C223      1.0  0.62829  0.39439  0.24512  1.0000
  C   C224      1.0  0.63412  0.35543  0.19684  1.0000
  H   H129      1.0  0.61761  0.31748  0.11120  1.0000
  O  Te9       1.0  0.55313  0.44845  0.19571  1.0000
  O  Te10      1.0  0.59595  0.46443  0.29405  1.0000
  H   H130      1.0  0.65496  0.33138  0.19690  1.0000
  Mg  Mg5       1.0  0.55591  0.49626  0.27228  1.0000
  C   C225      1.0  0.72549  0.29556  0.58805  1.0000
  C   C226      1.0  0.73513  0.33908  0.54732  1.0000
  C  Sn11      1.0  0.72370  0.39480  0.55290  1.0000
  C  Sn12      1.0  0.70224  0.40705  0.60018  1.0000
  C   C227      1.0  0.69276  0.36323  0.64073  1.0000
  C   C228      1.0  0.70433  0.30762  0.63472  1.0000
  H   H131      1.0  0.73445  0.25254  0.58343  1.0000
  O  Te11      1.0  0.73357  0.43777  0.51180  1.0000
  O  Te12      1.0  0.69047  0.46237  0.60681  1.0000
  H   H132      1.0  0.69688  0.27394  0.66629  1.0000
  Mg  Mg6       1.0  0.71091  0.50643  0.53953  1.0000
  C   C229      1.0  0.08057  0.93460  0.97417  1.0000
  C   C230      1.0  0.07454  0.98108  0.01864  1.0000
  C  Sn13      1.0  0.09539  0.98964  0.06696  1.0000
  C  Sn14      1.0  0.12137  0.95432  0.07069  1.0000
  C   C231      1.0  0.12584  0.91134  0.02595  1.0000
  C   C232      1.0  0.10619  0.89977  0.97780  1.0000
  H   H133      1.0  0.06432  0.92827  0.93690  1.0000
  O  Te13      1.0  0.08931  0.03288  0.11101  1.0000
  O  Te14      1.0  0.14258  0.96196  0.11848  1.0000
  H   H134      1.0  0.10981  0.86642  0.94336  1.0000
  Mg  Mg7       1.0  0.12469  0.02659  0.16742  1.0000
  C   C233      1.0  0.38727  0.34195  0.82376  1.0000
  C   C234      1.0  0.41465  0.37169  0.82500  1.0000
  C  Sn15      1.0  0.42204  0.40989  0.77663  1.0000
  C  Sn16      1.0  0.40160  0.41839  0.72616  1.0000
  C   C235      1.0  0.37426  0.38846  0.72538  1.0000
  C   C236      1.0  0.36709  0.35032  0.77401  1.0000
  H   H135      1.0  0.38171  0.31246  0.86140  1.0000
  O  Te15      1.0  0.44950  0.43924  0.77859  1.0000
  O  Te16      1.0  0.40843  0.45633  0.67722  1.0000
  H   H136      1.0  0.34588  0.32733  0.77306  1.0000
  Mg  Mg8       1.0  0.44862  0.48636  0.70096  1.0000
  C   C237      1.0  0.42166  0.58347  0.25096  1.0000
  C   C238      1.0  0.42340  0.61569  0.30610  1.0000
  C  Sn17      1.0  0.39937  0.65060  0.32407  1.0000
  C  Sn18      1.0  0.37312  0.65319  0.28604  1.0000
  C   C239      1.0  0.37158  0.62076  0.23099  1.0000
  C   C240      1.0  0.39577  0.58599  0.21343  1.0000
  H   H137      1.0  0.44036  0.55654  0.23739  1.0000
  O  Te17      1.0  0.40149  0.68252  0.37930  1.0000
  O  Te18      1.0  0.34876  0.68771  0.30291  1.0000
  H   H138      1.0  0.39440  0.56102  0.17076  1.0000
  Mg  Mg9       1.0  0.36238  0.72322  0.38243  1.0000
  C   C241      1.0  0.88017  0.96323  0.08041  1.0000
  C   C242      1.0  0.87426  0.91981  0.03684  1.0000
  C  Sn19      1.0  0.89483  0.90831  0.98583  1.0000
  C  Sn20      1.0  0.92041  0.94438  0.97843  1.0000
  C   C243      1.0  0.92476  0.99103  0.02230  1.0000
  C   C244      1.0  0.90539  0.99880  0.07316  1.0000
  H   H139      1.0  0.86519  0.96922  0.11979  1.0000
  O  Te19      1.0  0.88859  0.86474  0.94272  1.0000
  O  Te20      1.0  0.93998  0.93718  0.92788  1.0000
  H   H140      1.0  0.90890  0.03240  0.10691  1.0000
  Mg  Mg10      1.0  0.92192  0.87187  0.88159  1.0000
  C   C245      1.0  0.37371  0.65208  0.67350  1.0000
  C   C246      1.0  0.37139  0.61704  0.72672  1.0000
  C  Sn21      1.0  0.39459  0.57904  0.74235  1.0000
  C  Sn22      1.0  0.42058  0.57617  0.70390  1.0000
  C   C247      1.0  0.42269  0.61143  0.65078  1.0000
  C   C248      1.0  0.39933  0.64929  0.63557  1.0000
  H   H141      1.0  0.35564  0.68140  0.66175  1.0000
  O  Te21      1.0  0.39191  0.54433  0.79567  1.0000
  O  Te22      1.0  0.44411  0.53858  0.71844  1.0000
  H   H142      1.0  0.40115  0.67643  0.59438  1.0000
  Mg  Mg11      1.0  0.42996  0.49999  0.79596  1.0000
  C   C249      1.0  0.80782  0.24046  0.42281  1.0000
  C   C250      1.0  0.82578  0.22076  0.47233  1.0000
  C  Sn23      1.0  0.82088  0.24048  0.53330  1.0000
  C  Sn24      1.0  0.79754  0.28067  0.54477  1.0000
  C   C251      1.0  0.77967  0.30009  0.49491  1.0000
  C   C252      1.0  0.78478  0.28008  0.43408  1.0000
  H   H143      1.0  0.81175  0.22496  0.37574  1.0000
  O  Te23      1.0  0.83905  0.22037  0.58224  1.0000
  O  Te24      1.0  0.79215  0.30108  0.60526  1.0000
  H   H144      1.0  0.77085  0.29532  0.39575  1.0000
  Mg  Mg12      1.0  0.82293  0.26090  0.65649  1.0000
  C   C253      1.0  0.37589  0.35018  0.17625  1.0000
  C   C254      1.0  0.37492  0.38139  0.23214  1.0000
  C  Sn25      1.0  0.39706  0.42245  0.24530  1.0000
  C  Sn26      1.0  0.42057  0.43236  0.20159  1.0000
  C   C255      1.0  0.42133  0.40094  0.14579  1.0000
  C   C256      1.0  0.39906  0.35994  0.13311  1.0000
  H   H145      1.0  0.35865  0.31848  0.16642  1.0000
  O  Te25      1.0  0.39576  0.45325  0.30137  1.0000
  O  Te26      1.0  0.44298  0.47316  0.21355  1.0000
  H   H146      1.0  0.39980  0.33580  0.08982  1.0000
  Mg  Mg13      1.0  0.43148  0.50424  0.29647  1.0000
  C   C257      1.0  0.19858  0.43443  0.42336  1.0000
  C   C258      1.0  0.21596  0.41221  0.47253  1.0000
  C  Sn27      1.0  0.21054  0.42927  0.53427  1.0000
  C  Sn28      1.0  0.18726  0.46931  0.54687  1.0000
  C   C259      1.0  0.16999  0.49125  0.49736  1.0000
  C   C260      1.0  0.17561  0.47390  0.43575  1.0000
  H   H147      1.0  0.20292  0.42098  0.37569  1.0000
  O  Te27      1.0  0.22812  0.40667  0.58284  1.0000
  O  Te28      1.0  0.18135  0.48708  0.60814  1.0000
  H   H148      1.0  0.16214  0.49108  0.39769  1.0000
  Mg  Mg14      1.0  0.21144  0.44412  0.65847  1.0000
  C   C261      1.0  0.71189  0.58366  0.86921  1.0000
  C   C262      1.0  0.69281  0.62809  0.84984  1.0000
  C  Sn29      1.0  0.69682  0.68376  0.87301  1.0000
  C  Sn30      1.0  0.72040  0.69503  0.91636  1.0000
  C   C263      1.0  0.73938  0.65029  0.93541  1.0000
  C   C264      1.0  0.73516  0.59474  0.91195  1.0000
  H   H149      1.0  0.70864  0.54069  0.85104  1.0000
  O  Te29      1.0  0.67754  0.72765  0.85318  1.0000
  O  Te30      1.0  0.72492  0.75028  0.94024  1.0000
  H   H150      1.0  0.74995  0.56036  0.92692  1.0000
  Mg  Mg15      1.0  0.69277  0.79580  0.89904  1.0000
  C   C265      1.0  0.27574  0.58387  0.89338  1.0000
  C   C266      1.0  0.26417  0.63114  0.92566  1.0000
  C  Sn31      1.0  0.27267  0.68698  0.90870  1.0000
  C  Sn32      1.0  0.29312  0.69553  0.85846  1.0000
  C   C267      1.0  0.30455  0.64796  0.82644  1.0000
  C   C268      1.0  0.29590  0.59227  0.84381  1.0000
  H   H151      1.0  0.26904  0.54078  0.90679  1.0000
  O  Te31      1.0  0.26091  0.73372  0.94146  1.0000
  O  Te32      1.0  0.30198  0.75088  0.84052  1.0000
  H   H152      1.0  0.30484  0.55568  0.81878  1.0000
  Mg  Mg16      1.0  0.27979  0.80084  0.89950  1.0000
