data_image0
_chemical_formula_structural       CHCHC4H2C3NCHC2NCH2C3NCHC2NCH2C2HNC4H2C3NCHC2NCH2C3NCHC2NCH2C2HNC4H2CHCHC4H2CHCHN2SnCSn2CSnTe4Mg2SnCSn2CSnTe4Mg2SnCSn2CSnTe4Mg2SnCSn2CSnTe4Mg2SnCSn2CSnTe4Mg2SnCSn2CSnTe4Mg2SnCSn2CSnTe4Mg2SnCSn2CSnTe4Mg2SnCSn2CSnTe4Mg2SnCSn2CSnTe4Mg2SnCSn2CSnTe4Mg2SnCSn2CSnTe4Mg2SnCSn2CSnTe4Mg2SnCSn2CSnTe4Mg2SnCSn2CSnTe4Mg2SnCSn2CSnTe4Mg2
_chemical_formula_sum              "C86 H28 N12 Sn64 Te64 Mg32"
_cell_length_a       44.2568
_cell_length_b       23.3236
_cell_length_c       21.4302
_cell_angle_alpha    90.1959
_cell_angle_beta     89.791
_cell_angle_gamma    89.9468

_symmetry_space_group_name_H-M    'P1'
_space_group_IT_number       1

loop_
  _space_group_symop_operation_xyz
  'x, y, z'

loop_
  _atom_site_type_symbol
  _atom_site_label
  _atom_site_symmetry_multiplicity
  _atom_site_fract_x
  _atom_site_fract_y
  _atom_site_fract_z
  _atom_site_occupancy
  C   C1        1.0  0.35135  0.38316  0.68625  1.0000
  H   H1        1.0  0.35514  0.41233  0.64677  1.0000
  C   C2        1.0  0.34942  0.38835  0.28955  1.0000
  H   H2        1.0  0.35223  0.42011  0.32720  1.0000
  C   C3        1.0  0.06370  0.80535  0.51903  1.0000
  C   C4        1.0  0.09441  0.82447  0.50400  1.0000
  C   C5        1.0  0.06487  0.90436  0.52089  1.0000
  C   C6        1.0  0.09508  0.88312  0.50511  1.0000
  H   H3        1.0  0.11295  0.79614  0.49183  1.0000
  H   H4        1.0  0.11422  0.91016  0.49385  1.0000
  C   C7        1.0  0.85029  0.57854  0.52670  1.0000
  C   C8        1.0  0.56601  0.38941  0.03962  1.0000
  C   C9        1.0  0.55605  0.38520  0.10290  1.0000
  N   N1        1.0  0.66994  0.35645  0.29363  1.0000
  C   C10       1.0  0.40426  0.41519  0.01936  1.0000
  H   H5        1.0  0.38700  0.42932  0.92422  1.0000
  C   C11       1.0  0.02341  0.72894  0.52358  1.0000
  C   C12       1.0  0.01390  0.67090  0.53819  1.0000
  N   N2        1.0  0.15035  0.53610  0.48576  1.0000
  C   C13       1.0  0.94371  0.75050  0.52154  1.0000
  H   H6        1.0  0.02869  0.63519  0.54855  1.0000
  H   H7        1.0  0.83280  0.58479  0.56277  1.0000
  C   C14       1.0  0.85276  0.13809  0.51978  1.0000
  C   C15       1.0  0.56638  0.38536  0.93799  1.0000
  C   C16       1.0  0.55674  0.37724  0.87508  1.0000
  N   N3        1.0  0.67276  0.34116  0.68641  1.0000
  C   C17       1.0  0.40454  0.41447  0.95540  1.0000
  H   H8        1.0  0.38642  0.43040  0.05001  1.0000
  C   C18       1.0  0.02562  0.98220  0.52901  1.0000
  C   C19       1.0  0.01677  0.03987  0.54727  1.0000
  N   N4        1.0  0.15087  0.17508  0.48653  1.0000
  C   C20       1.0  0.94568  0.96514  0.52371  1.0000
  H   H9        1.0  0.03193  0.07426  0.56038  1.0000
  H   H10       1.0  0.83667  0.13650  0.55905  1.0000
  C   C21       1.0  0.23994  0.35588  0.49083  1.0000
  C   C22       1.0  0.04612  0.85545  0.52986  1.0000
  H   H11       1.0  0.02293  0.85654  0.54545  1.0000
  N   N5        1.0  0.54872  0.37466  0.98919  1.0000
  C   C23       1.0  0.52550  0.37943  0.12113  1.0000
  C   C24       1.0  0.51448  0.36184  0.18261  1.0000
  C   C25       1.0  0.52632  0.37198  0.85677  1.0000
  C   C26       1.0  0.51562  0.35221  0.79587  1.0000
  H   H12       1.0  0.53009  0.33640  0.75870  1.0000
  H   H13       1.0  0.52886  0.34842  0.22066  1.0000
  C   C27       1.0  0.14767  0.57594  0.52745  1.0000
  C   C28       1.0  0.43351  0.39335  0.03865  1.0000
  C   C29       1.0  0.44302  0.38703  0.10182  1.0000
  N   N6        1.0  0.32746  0.35190  0.28998  1.0000
  C   C30       1.0  0.59553  0.40993  0.01996  1.0000
  H   H14       1.0  0.61361  0.42035  0.92447  1.0000
  C   C31       1.0  0.97417  0.73025  0.52391  1.0000
  C   C32       1.0  0.98295  0.67172  0.53849  1.0000
  N   N7        1.0  0.84976  0.53599  0.48805  1.0000
  C   C33       1.0  0.05403  0.74767  0.52119  1.0000
  H   H15       1.0  0.96780  0.63666  0.54924  1.0000
  H   H16       1.0  0.16353  0.58047  0.56667  1.0000
  C   C34       1.0  0.14946  0.13469  0.52749  1.0000
  C   C35       1.0  0.43390  0.39203  0.93701  1.0000
  C   C36       1.0  0.44382  0.38374  0.87419  1.0000
  N   N8        1.0  0.32795  0.35021  0.68893  1.0000
  C   C37       1.0  0.59578  0.40721  0.95606  1.0000
  H   H17       1.0  0.61318  0.42613  0.05009  1.0000
  C   C38       1.0  0.97636  0.98340  0.52830  1.0000
  C   C39       1.0  0.98580  0.04063  0.54678  1.0000
  N   N9        1.0  0.85018  0.17537  0.47574  1.0000
  C   C40       1.0  0.05614  0.96238  0.52496  1.0000
  H   H18       1.0  0.97100  0.07582  0.55943  1.0000
  H   H19       1.0  0.16620  0.13055  0.56513  1.0000
  C   C41       1.0  0.76065  0.35531  0.48708  1.0000
  C   C42       1.0  0.95365  0.85749  0.52921  1.0000
  H   H20       1.0  0.97690  0.85654  0.54419  1.0000
  N   N10       1.0  0.45106  0.37946  0.98814  1.0000
  C   C43       1.0  0.47332  0.38028  0.12043  1.0000
  C   C44       1.0  0.48355  0.36228  0.18218  1.0000
  C   C45       1.0  0.47421  0.37542  0.85622  1.0000
  C   C46       1.0  0.48473  0.35430  0.79557  1.0000
  H   H21       1.0  0.47006  0.34054  0.75810  1.0000
  H   H22       1.0  0.46861  0.34925  0.21972  1.0000
  C   C47       1.0  0.64898  0.37330  0.68481  1.0000
  H   H23       1.0  0.64469  0.40266  0.64571  1.0000
  C   C48       1.0  0.64885  0.39459  0.29113  1.0000
  H   H24       1.0  0.64681  0.42898  0.32620  1.0000
  C   C49       1.0  0.93499  0.80861  0.51936  1.0000
  C   C50       1.0  0.90471  0.82988  0.50472  1.0000
  C   C51       1.0  0.93596  0.90760  0.51985  1.0000
  C   C52       1.0  0.90532  0.88851  0.50465  1.0000
  H   H25       1.0  0.88554  0.80285  0.49377  1.0000
  H   H26       1.0  0.88674  0.91682  0.49329  1.0000
  C   C53       1.0  0.50032  0.38599  0.89299  1.0000
  H   H27       1.0  0.50050  0.40546  0.93875  1.0000
  C   C54       1.0  0.49965  0.39034  0.08366  1.0000
  H   H28       1.0  0.49992  0.40719  0.03679  1.0000
  N   N11       1.0  0.99900  0.76393  0.51431  1.0000
  N   N12       1.0  0.00085  0.94885  0.51736  1.0000
  C  Sn1       1.0  0.11106  0.70696  0.56193  1.0000
  C   C55       1.0  0.08740  0.71193  0.51926  1.0000
  C  Sn2       1.0  0.07980  0.66585  0.48061  1.0000
  C  Sn3       1.0  0.09616  0.61370  0.48471  1.0000
  C   C56       1.0  0.11980  0.60874  0.52736  1.0000
  C  Sn4       1.0  0.12743  0.65480  0.56602  1.0000
  O  Te1       1.0  0.11827  0.75358  0.60011  1.0000
  O  Te2       1.0  0.05606  0.67185  0.43831  1.0000
  O  Te3       1.0  0.08893  0.56706  0.44647  1.0000
  O  Te4       1.0  0.15114  0.64881  0.60831  1.0000
  Mg  Mg1       1.0  0.05477  0.59616  0.39630  1.0000
  Mg  Mg2       1.0  0.15245  0.72446  0.65036  1.0000
  C  Sn5       1.0  0.20683  0.44759  0.42912  1.0000
  C   C57       1.0  0.22125  0.42268  0.48023  1.0000
  C  Sn6       1.0  0.20933  0.42924  0.54028  1.0000
  C  Sn7       1.0  0.18244  0.46134  0.54945  1.0000
  C   C58       1.0  0.16803  0.48622  0.49837  1.0000
  C  Sn8       1.0  0.17993  0.47969  0.43829  1.0000
  O  Te5       1.0  0.21914  0.44047  0.36950  1.0000
  O  Te6       1.0  0.22416  0.40395  0.59065  1.0000
  O  Te7       1.0  0.17013  0.46845  0.60914  1.0000
  O  Te8       1.0  0.16512  0.50495  0.38794  1.0000
  Mg  Mg3       1.0  0.19857  0.42578  0.66291  1.0000
  Mg  Mg4       1.0  0.19068  0.48313  0.31567  1.0000
  C  Sn9       1.0  0.39924  0.44030  0.22943  1.0000
  C   C59       1.0  0.37320  0.40650  0.23145  1.0000
  C  Sn10      1.0  0.37095  0.35730  0.19441  1.0000
  C  Sn11      1.0  0.39525  0.34152  0.15455  1.0000
  C   C60       1.0  0.42127  0.37530  0.15256  1.0000
  C  Sn12      1.0  0.42354  0.42452  0.18957  1.0000
  O  Te9       1.0  0.40100  0.48930  0.26686  1.0000
  O  Te10      1.0  0.34469  0.32420  0.19721  1.0000
  O  Te11      1.0  0.39347  0.29247  0.11711  1.0000
  O  Te12      1.0  0.44979  0.45760  0.18679  1.0000
  Mg  Mg5       1.0  0.35304  0.26128  0.13733  1.0000
  Mg  Mg6       1.0  0.44146  0.52051  0.24667  1.0000
  C  Sn13      1.0  0.29573  0.41222  0.38301  1.0000
  C   C61       1.0  0.30946  0.36503  0.35422  1.0000
  C  Sn14      1.0  0.29755  0.31006  0.36197  1.0000
  C  Sn15      1.0  0.27136  0.30209  0.39926  1.0000
  C   C62       1.0  0.25763  0.34926  0.42801  1.0000
  C  Sn16      1.0  0.26953  0.40425  0.42029  1.0000
  O  Te13      1.0  0.30802  0.46678  0.37461  1.0000
  O  Te14      1.0  0.31169  0.26354  0.33274  1.0000
  O  Te15      1.0  0.25907  0.24746  0.40764  1.0000
  O  Te16      1.0  0.25541  0.45075  0.44949  1.0000
  Mg  Mg7       1.0  0.28641  0.19759  0.35824  1.0000
  Mg  Mg8       1.0  0.28065  0.51671  0.42400  1.0000
  C  Sn17      1.0  0.10416  0.02104  0.58427  1.0000
  C   C63       1.0  0.08041  0.01499  0.54198  1.0000
  C  Sn18      1.0  0.08066  0.04509  0.48574  1.0000
  C  Sn19      1.0  0.10517  0.08197  0.47145  1.0000
  C   C64       1.0  0.12890  0.08799  0.51372  1.0000
  C  Sn20      1.0  0.12867  0.05792  0.56998  1.0000
  O  Te17      1.0  0.10296  0.99053  0.64022  1.0000
  O  Te18      1.0  0.05665  0.03836  0.44420  1.0000
  O  Te19      1.0  0.10587  0.11249  0.41545  1.0000
  O  Te20      1.0  0.15267  0.06462  0.61150  1.0000
  Mg  Mg9       1.0  0.06793  0.08904  0.37396  1.0000
  Mg  Mg10      1.0  0.14142  0.01395  0.68173  1.0000
  C  Sn21      1.0  0.20674  0.26402  0.55237  1.0000
  C   C65       1.0  0.22073  0.28973  0.50104  1.0000
  C  Sn22      1.0  0.20857  0.28348  0.44135  1.0000
  C  Sn23      1.0  0.18186  0.25089  0.43277  1.0000
  C   C66       1.0  0.16788  0.22521  0.48408  1.0000
  C  Sn24      1.0  0.18003  0.23143  0.54379  1.0000
  O  Te21      1.0  0.21929  0.27083  0.61162  1.0000
  O  Te22      1.0  0.22297  0.30957  0.39075  1.0000
  O  Te23      1.0  0.16931  0.24409  0.37345  1.0000
  O  Te24      1.0  0.16564  0.20537  0.59437  1.0000
  Mg  Mg11      1.0  0.19718  0.28788  0.31917  1.0000
  Mg  Mg12      1.0  0.19140  0.22705  0.66597  1.0000
  C  Sn25      1.0  0.39310  0.33250  0.81606  1.0000
  C   C67       1.0  0.41923  0.36606  0.81778  1.0000
  C  Sn26      1.0  0.42220  0.41353  0.77867  1.0000
  C  Sn27      1.0  0.39855  0.42778  0.73699  1.0000
  C   C68       1.0  0.37244  0.39423  0.73529  1.0000
  C  Sn28      1.0  0.36945  0.34675  0.77438  1.0000
  O  Te25      1.0  0.39062  0.28524  0.85558  1.0000
  O  Te26      1.0  0.44853  0.44643  0.78121  1.0000
  O  Te27      1.0  0.40105  0.47508  0.69745  1.0000
  O  Te28      1.0  0.34313  0.31387  0.77185  1.0000
  Mg  Mg13      1.0  0.44129  0.50669  0.71816  1.0000
  Mg  Mg14      1.0  0.35035  0.25361  0.83491  1.0000
  C  Sn29      1.0  0.26963  0.30051  0.59547  1.0000
  C   C69       1.0  0.25828  0.34770  0.56306  1.0000
  C  Sn30      1.0  0.27279  0.40077  0.56664  1.0000
  C  Sn31      1.0  0.29920  0.40680  0.60335  1.0000
  C   C70       1.0  0.31054  0.35962  0.63573  1.0000
  C  Sn32      1.0  0.29605  0.30654  0.63218  1.0000
  O  Te29      1.0  0.25476  0.24786  0.59121  1.0000
  O  Te30      1.0  0.26101  0.44733  0.53383  1.0000
  O  Te31      1.0  0.31407  0.45950  0.60759  1.0000
  O  Te32      1.0  0.30781  0.25999  0.66495  1.0000
  Mg  Mg15      1.0  0.28932  0.51025  0.55435  1.0000
  Mg  Mg16      1.0  0.27953  0.19706  0.64445  1.0000
  C  Sn33      1.0  0.62864  0.36262  0.17053  1.0000
  C   C71       1.0  0.62939  0.39667  0.22428  1.0000
  C  Sn34      1.0  0.60323  0.42405  0.24569  1.0000
  C  Sn35      1.0  0.57574  0.41723  0.21270  1.0000
  C   C72       1.0  0.57499  0.38319  0.15899  1.0000
  C  Sn36      1.0  0.60114  0.35580  0.13754  1.0000
  O  Te33      1.0  0.65506  0.33565  0.14997  1.0000
  O  Te34      1.0  0.60455  0.45789  0.29954  1.0000
  O  Te35      1.0  0.54930  0.44423  0.23330  1.0000
  O  Te36      1.0  0.59983  0.32197  0.08373  1.0000
  Mg  Mg17      1.0  0.56253  0.48587  0.30904  1.0000
  Mg  Mg18      1.0  0.64183  0.29394  0.07420  1.0000
  C  Sn37      1.0  0.69856  0.30671  0.39232  1.0000
  C   C73       1.0  0.68917  0.35298  0.35593  1.0000
  C  Sn38      1.0  0.70645  0.40301  0.35329  1.0000
  C  Sn39      1.0  0.73369  0.40686  0.38769  1.0000
  C   C74       1.0  0.74307  0.36060  0.42403  1.0000
  C  Sn40      1.0  0.72581  0.31055  0.42672  1.0000
  O  Te37      1.0  0.68093  0.25711  0.39427  1.0000
  O  Te38      1.0  0.69659  0.44872  0.31660  1.0000
  O  Te39      1.0  0.75132  0.45651  0.38570  1.0000
  O  Te40      1.0  0.73565  0.26486  0.46336  1.0000
  Mg  Mg19      1.0  0.72842  0.50721  0.32901  1.0000
  Mg  Mg20      1.0  0.70385  0.20635  0.45097  1.0000
  C  Sn41      1.0  0.88435  0.04966  0.58055  1.0000
  C   C75       1.0  0.88173  0.09600  0.53976  1.0000
  C  Sn42      1.0  0.89840  0.09724  0.48431  1.0000
  C  Sn43      1.0  0.91810  0.05118  0.46930  1.0000
  C   C76       1.0  0.92071  0.00486  0.51007  1.0000
  C  Sn44      1.0  0.90405  0.00359  0.56554  1.0000
  O  Te41      1.0  0.86746  0.04932  0.63572  1.0000
  O  Te42      1.0  0.89541  0.14405  0.44428  1.0000
  O  Te43      1.0  0.93500  0.05155  0.41408  1.0000
  O  Te44      1.0  0.90654  0.95682  0.60555  1.0000
  Mg  Mg21      1.0  0.92316  0.12478  0.37463  1.0000
  Mg  Mg22      1.0  0.87879  0.97603  0.67520  1.0000
  C  Sn45      1.0  0.81087  0.29363  0.53731  1.0000
  C   C77       1.0  0.79230  0.31213  0.48875  1.0000
  C  Sn46      1.0  0.78940  0.27923  0.43451  1.0000
  C  Sn47      1.0  0.80538  0.22674  0.42870  1.0000
  C   C78       1.0  0.82394  0.20826  0.47724  1.0000
  C  Sn48      1.0  0.82685  0.24114  0.53149  1.0000
  O  Te45      1.0  0.81342  0.32721  0.59111  1.0000
  O  Te46      1.0  0.77071  0.29861  0.38659  1.0000
  O  Te47      1.0  0.80281  0.19316  0.37484  1.0000
  O  Te48      1.0  0.84553  0.22178  0.57940  1.0000
  Mg  Mg23      1.0  0.77458  0.23773  0.32245  1.0000
  Mg  Mg24      1.0  0.84166  0.28261  0.64357  1.0000
  C  Sn49      1.0  0.57711  0.39976  0.75132  1.0000
  C   C79       1.0  0.57605  0.36894  0.80710  1.0000
  C  Sn50      1.0  0.60202  0.34240  0.83008  1.0000
  C  Sn51      1.0  0.62963  0.34679  0.79663  1.0000
  C   C80       1.0  0.63069  0.37760  0.74090  1.0000
  C  Sn52      1.0  0.60473  0.40415  0.71788  1.0000
  O  Te49      1.0  0.55088  0.42595  0.72923  1.0000
  O  Te50      1.0  0.60040  0.31181  0.88593  1.0000
  O  Te51      1.0  0.65588  0.32056  0.81878  1.0000
  O  Te52      1.0  0.60634  0.43473  0.66207  1.0000
  Mg  Mg25      1.0  0.64225  0.28368  0.89701  1.0000
  Mg  Mg26      1.0  0.56451  0.46290  0.65097  1.0000
  C  Sn53      1.0  0.72119  0.29259  0.57024  1.0000
  C   C81       1.0  0.73151  0.34073  0.53791  1.0000
  C  Sn54      1.0  0.72550  0.39581  0.56058  1.0000
  C  Sn55      1.0  0.70886  0.40293  0.61676  1.0000
  C   C82       1.0  0.69856  0.35481  0.64906  1.0000
  C  Sn56      1.0  0.70455  0.29971  0.62642  1.0000
  O  Te53      1.0  0.72746  0.23793  0.54672  1.0000
  O  Te54      1.0  0.73604  0.44329  0.52743  1.0000
  O  Te55      1.0  0.70259  0.45765  0.64027  1.0000
  O  Te56      1.0  0.69402  0.25225  0.65954  1.0000
  Mg  Mg27      1.0  0.72177  0.50898  0.57837  1.0000
  Mg  Mg28      1.0  0.70830  0.18655  0.60867  1.0000
  C  Sn57      1.0  0.91024  0.66121  0.46240  1.0000
  C   C83       1.0  0.91455  0.70673  0.50399  1.0000
  C  Sn58      1.0  0.89960  0.70762  0.56150  1.0000
  C  Sn59      1.0  0.87994  0.66204  0.57781  1.0000
  C   C84       1.0  0.87563  0.61655  0.53624  1.0000
  C  Sn60      1.0  0.89057  0.61563  0.47871  1.0000
  O  Te57      1.0  0.92542  0.66121  0.40516  1.0000
  O  Te58      1.0  0.90427  0.75360  0.60229  1.0000
  O  Te59      1.0  0.86475  0.66207  0.63510  1.0000
  O  Te60      1.0  0.88592  0.56968  0.43794  1.0000
  Mg  Mg29      1.0  0.87849  0.73414  0.67488  1.0000
  Mg  Mg30      1.0  0.91170  0.58908  0.36536  1.0000
  C  Sn61      1.0  0.81384  0.45619  0.55439  1.0000
  C   C85       1.0  0.83057  0.47832  0.50458  1.0000
  C  Sn62      1.0  0.82146  0.46846  0.44314  1.0000
  C  Sn63      1.0  0.79506  0.43582  0.43123  1.0000
  C   C86       1.0  0.77835  0.41371  0.48102  1.0000
  C  Sn64      1.0  0.78744  0.42355  0.54248  1.0000
  O  Te61      1.0  0.82336  0.46658  0.61544  1.0000
  O  Te62      1.0  0.83856  0.49101  0.39410  1.0000
  O  Te63      1.0  0.78555  0.42543  0.37011  1.0000
  O  Te64      1.0  0.77036  0.40102  0.59150  1.0000
  Mg  Mg31      1.0  0.81637  0.46519  0.31904  1.0000
  Mg  Mg32      1.0  0.79251  0.42684  0.66657  1.0000
