data_image0
_chemical_formula_structural       N3C9H6N4C9H6NC2Sn2C2HTe2HMgC2Sn2C2HTe2HMgC2Sn2C2HTe2HMgC2Sn2C2HTe2HMgC2Sn2C2HTe2HMgC2Sn2C2HTe2HMgC2Sn2C2HTe2HMgC2Sn2C2HTe2HMgC2Sn2C2HTe2HMgC2Sn2C2HTe2HMgC2Sn2C2HTe2HMgC2Sn2C2HTe2HMg
_chemical_formula_sum              "N8 C66 H36 Sn24 Te24 Mg12"
_cell_length_a       23.5099
_cell_length_b       23.423
_cell_length_c       8.23821
_cell_angle_alpha    91.6971
_cell_angle_beta     89.9253
_cell_angle_gamma    120.042

_symmetry_space_group_name_H-M    'P1'
_space_group_IT_number       1

loop_
  _space_group_symop_operation_xyz
  'x, y, z'

loop_
  _atom_site_type_symbol
  _atom_site_label
  _atom_site_symmetry_multiplicity
  _atom_site_fract_x
  _atom_site_fract_y
  _atom_site_fract_z
  _atom_site_occupancy
  N   N1        1.0  0.28094  0.14574  0.05712  1.0000
  N   N2        1.0  0.85262  0.12764  0.05311  1.0000
  N   N3        1.0  0.86775  0.72071  0.06682  1.0000
  C   C1        1.0  0.31257  0.13568  0.46130  1.0000
  C   C2        1.0  0.86173  0.17877  0.44779  1.0000
  C   C3        1.0  0.81573  0.68741  0.44858  1.0000
  C   C4        1.0  0.59516  0.29460  0.44875  1.0000
  C   C5        1.0  0.70361  0.30387  0.44594  1.0000
  C   C6        1.0  0.69437  0.40351  0.44015  1.0000
  C   C7        1.0  0.73259  0.37274  0.44033  1.0000
  C   C8        1.0  0.62570  0.36358  0.44334  1.0000
  C   C9        1.0  0.63482  0.26551  0.45070  1.0000
  H   H1        1.0  0.29197  0.09024  0.38478  1.0000
  H   H2        1.0  0.89850  0.19382  0.35147  1.0000
  H   H3        1.0  0.79321  0.70690  0.36634  1.0000
  H   H4        1.0  0.78589  0.40271  0.43721  1.0000
  H   H5        1.0  0.59522  0.38642  0.44230  1.0000
  H   H6        1.0  0.61185  0.21217  0.45730  1.0000
  N   N4        1.0  0.00289  0.00004  0.07611  1.0000
  N   N5        1.0  0.27685  0.15193  0.54942  1.0000
  N   N6        1.0  0.85337  0.13557  0.55355  1.0000
  N   N7        1.0  0.86577  0.72463  0.54258  1.0000
  C   C10       1.0  0.31511  0.13644  0.94705  1.0000
  C   C11       1.0  0.86674  0.17817  0.96627  1.0000
  C   C12       1.0  0.82444  0.68360  0.95741  1.0000
  C   C13       1.0  0.59790  0.29147  0.94579  1.0000
  C   C14       1.0  0.70579  0.29959  0.95194  1.0000
  C   C15       1.0  0.69762  0.39979  0.95540  1.0000
  C   C16       1.0  0.73531  0.36863  0.95818  1.0000
  C   C17       1.0  0.62897  0.36059  0.94997  1.0000
  C   C18       1.0  0.63691  0.26166  0.94483  1.0000
  H   H7        1.0  0.29248  0.09917  0.84761  1.0000
  H   H8        1.0  0.91090  0.20229  0.89136  1.0000
  H   H9        1.0  0.81032  0.70372  0.85590  1.0000
  H   H10       1.0  0.78856  0.39891  0.96485  1.0000
  H   H11       1.0  0.59928  0.38428  0.94860  1.0000
  H   H12       1.0  0.61327  0.20810  0.94044  1.0000
  N   N8        1.0  0.99933  0.00386  0.58004  1.0000
  C   C19       1.0  0.12544  0.11243  0.16290  1.0000
  C   C20       1.0  0.08051  0.05235  0.08648  1.0000
  C  Sn1       1.0  0.10902  0.02908  0.99884  1.0000
  C  Sn2       1.0  0.17748  0.05291  0.98776  1.0000
  C   C21       1.0  0.21570  0.09946  0.06474  1.0000
  C   C22       1.0  0.19296  0.13596  0.15208  1.0000
  H   H13       1.0  0.10785  0.14066  0.23055  1.0000
  O  Te1       1.0  0.56225  0.96918  0.92318  1.0000
  O  Te2       1.0  0.20099  0.01705  0.90100  1.0000
  H   H14       1.0  0.22776  0.18245  0.21132  1.0000
  Mg  Mg1       1.0  0.61838  0.93821  0.81893  1.0000
  C   C23       1.0  0.87105  0.02651  0.15228  1.0000
  C   C24       1.0  0.88890  0.08767  0.08782  1.0000
  C  Sn3       1.0  0.94801  0.12248  0.00545  1.0000
  C  Sn4       1.0  0.99623  0.10901  0.98744  1.0000
  C   C25       1.0  0.97157  0.03417  0.05227  1.0000
  C   C26       1.0  0.41111  0.99977  0.13451  1.0000
  H   H15       1.0  0.32397  0.99987  0.21583  1.0000
  O  Te3       1.0  0.97144  0.19713  0.94185  1.0000
  O  Te4       1.0  0.05557  0.14273  0.90563  1.0000
  H   H16       1.0  0.39727  0.95239  0.18432  1.0000
  Mg  Mg2       1.0  0.05735  0.22429  0.84039  1.0000
  C   C27       1.0  0.97404  0.84161  0.15758  1.0000
  C   C28       1.0  0.91126  0.79793  0.09457  1.0000
  C  Sn5       1.0  0.87638  0.82168  0.00972  1.0000
  C  Sn6       1.0  0.91133  0.90406  0.98769  1.0000
  C   C29       1.0  0.96786  0.93376  0.05110  1.0000
  C   C30       1.0  0.00232  0.90947  0.13585  1.0000
  H   H17       1.0  0.00072  0.82282  0.22308  1.0000
  O  Te5       1.0  0.82003  0.79094  0.94762  1.0000
  O  Te6       1.0  0.87757  0.92913  0.90333  1.0000
  H   H18       1.0  0.05094  0.94330  0.18453  1.0000
  Mg  Mg3       1.0  0.79349  0.84899  0.84153  1.0000
  C   C31       1.0  0.12196  0.11550  0.66889  1.0000
  C   C32       1.0  0.07659  0.05612  0.59043  1.0000
  C  Sn7       1.0  0.09824  0.02065  0.49499  1.0000
  C  Sn8       1.0  0.16662  0.04518  0.47804  1.0000
  C   C33       1.0  0.21162  0.10461  0.55712  1.0000
  C   C34       1.0  0.18941  0.13972  0.65229  1.0000
  H   H19       1.0  0.10478  0.14265  0.74260  1.0000
  O  Te7       1.0  0.55103  0.96142  0.41739  1.0000
  O  Te8       1.0  0.18961  0.01071  0.38343  1.0000
  H   H20       1.0  0.22455  0.18567  0.71310  1.0000
  Mg  Mg4       1.0  0.60652  0.93234  0.30163  1.0000
  C   C35       1.0  0.97006  0.13082  0.47257  1.0000
  C   C36       1.0  0.90755  0.11289  0.53013  1.0000
  C  Sn9       1.0  0.87319  0.05656  0.62163  1.0000
  C  Sn10      1.0  0.90209  0.01756  0.65599  1.0000
  C   C37       1.0  0.96467  0.03594  0.59795  1.0000
  C   C38       1.0  0.99861  0.09239  0.50645  1.0000
  H   H21       1.0  0.99634  0.17452  0.40185  1.0000
  O  Te9       1.0  0.81078  0.03934  0.67815  1.0000
  O  Te10      1.0  0.36763  0.96102  0.74721  1.0000
  H   H22       1.0  0.04702  0.10629  0.46200  1.0000
  Mg  Mg5       1.0  0.28374  0.95788  0.79736  1.0000
  C   C39       1.0  0.89103  0.88334  0.46322  1.0000
  C   C40       1.0  0.94688  0.92575  0.55650  1.0000
  C  Sn11      1.0  0.97984  0.90062  0.64419  1.0000
  C  Sn12      1.0  0.95635  0.83175  0.63810  1.0000
  C   C41       1.0  0.90046  0.78975  0.54432  1.0000
  C   C42       1.0  0.86783  0.81541  0.45709  1.0000
  H   H23       1.0  0.86580  0.90320  0.39565  1.0000
  O  Te11      1.0  0.03556  0.94368  0.73683  1.0000
  O  Te12      1.0  0.98837  0.80533  0.72450  1.0000
  H   H24       1.0  0.82462  0.78257  0.38479  1.0000
  Mg  Mg6       1.0  0.06226  0.88404  0.83336  1.0000
  C   C43       1.0  0.47431  0.17447  0.36741  1.0000
  C   C44       1.0  0.51539  0.23908  0.42632  1.0000
  C  Sn13      1.0  0.48925  0.27258  0.51302  1.0000
  C  Sn14      1.0  0.42069  0.24066  0.54111  1.0000
  C   C45       1.0  0.38001  0.17600  0.48177  1.0000
  C   C46       1.0  0.40668  0.14295  0.39511  1.0000
  H   H25       1.0  0.49494  0.14887  0.30044  1.0000
  O  Te13      1.0  0.53100  0.33712  0.57097  1.0000
  O  Te14      1.0  0.39327  0.27299  0.62745  1.0000
  H   H26       1.0  0.37487  0.09291  0.34961  1.0000
  Mg  Mg7       1.0  0.47034  0.36061  0.68191  1.0000
  C   C47       1.0  0.72723  0.20082  0.54947  1.0000
  C   C48       1.0  0.73942  0.25878  0.47572  1.0000
  C  Sn15      1.0  0.79399  0.29209  0.37676  1.0000
  C  Sn16      1.0  0.83705  0.26679  0.35135  1.0000
  C   C49       1.0  0.82440  0.20874  0.42558  1.0000
  C   C50       1.0  0.76966  0.17581  0.52442  1.0000
  H   H27       1.0  0.68486  0.17532  0.62587  1.0000
  O  Te15      1.0  0.80546  0.34995  0.30406  1.0000
  O  Te16      1.0  0.89194  0.29908  0.25298  1.0000
  H   H28       1.0  0.76021  0.13092  0.58142  1.0000
  Mg  Mg8       1.0  0.88676  0.37621  0.18045  1.0000
  C   C51       1.0  0.81682  0.57004  0.53462  1.0000
  C   C52       1.0  0.79639  0.60932  0.45795  1.0000
  C  Sn17      1.0  0.73629  0.58022  0.37381  1.0000
  C  Sn18      1.0  0.69598  0.51050  0.36654  1.0000
  C   C53       1.0  0.71683  0.47165  0.44374  1.0000
  C   C54       1.0  0.77708  0.50128  0.52756  1.0000
  H   H29       1.0  0.86341  0.59296  0.59955  1.0000
  O  Te17      1.0  0.71665  0.62019  0.29785  1.0000
  O  Te18      1.0  0.63567  0.48013  0.28332  1.0000
  H   H30       1.0  0.79285  0.47086  0.58699  1.0000
  Mg  Mg9       1.0  0.63031  0.55566  0.19927  1.0000
  C   C55       1.0  0.47640  0.17717  0.83719  1.0000
  C   C56       1.0  0.51819  0.23777  0.91607  1.0000
  C  Sn19      1.0  0.48630  0.25339  0.02097  1.0000
  C  Sn20      1.0  0.41760  0.22122  0.04717  1.0000
  C   C57       1.0  0.38254  0.17418  0.96777  1.0000
  C   C58       1.0  0.40864  0.14539  0.86302  1.0000
  H   H31       1.0  0.49660  0.15487  0.75621  1.0000
  O  Te19      1.0  0.52875  0.31396  0.09875  1.0000
  O  Te20      1.0  0.39075  0.24931  0.15142  1.0000
  H   H32       1.0  0.37628  0.09846  0.80204  1.0000
  Mg  Mg10      1.0  0.46868  0.33248  0.22944  1.0000
  C   C59       1.0  0.74780  0.17792  0.05040  1.0000
  C   C60       1.0  0.81374  0.21008  0.97407  1.0000
  C  Sn21      1.0  0.84514  0.26841  0.88870  1.0000
  C  Sn22      1.0  0.81620  0.30882  0.87984  1.0000
  C   C61       1.0  0.75656  0.28984  0.95672  1.0000
  C   C62       1.0  0.71923  0.21776  0.04177  1.0000
  H   H33       1.0  0.72382  0.13270  0.11629  1.0000
  O  Te21      1.0  0.90467  0.28620  0.81309  1.0000
  O  Te22      1.0  0.84654  0.36738  0.79538  1.0000
  H   H34       1.0  0.67309  0.20343  0.10095  1.0000
  Mg  Mg11      1.0  0.92713  0.37058  0.71241  1.0000
  C   C63       1.0  0.80068  0.52802  0.06792  1.0000
  C   C64       1.0  0.74926  0.49482  0.98748  1.0000
  C  Sn23      1.0  0.71681  0.51485  0.88130  1.0000
  C  Sn24      1.0  0.74278  0.58305  0.85538  1.0000
  C   C65       1.0  0.80060  0.62948  0.93634  1.0000
  C   C66       1.0  0.82634  0.59529  0.04237  1.0000
  H   H35       1.0  0.82551  0.51210  0.14989  1.0000
  O  Te23      1.0  0.65916  0.46744  0.80198  1.0000
  O  Te24      1.0  0.71136  0.60444  0.74986  1.0000
  H   H36       1.0  0.87107  0.63154  0.10454  1.0000
  Mg  Mg12      1.0  0.63418  0.52102  0.66996  1.0000
