data_image0
_chemical_formula_structural       N3C9H6N4C9H6NSnCSn2CSnTe4Mg2SnCSn2CSnTe4Mg2SnCSn2CSnTe4Mg2SnCSn2CSnTe4Mg2SnCSn2CSnTe4Mg2SnCSn2CSnTe4Mg2SnCSn2CSnTe4Mg2SnCSn2CSnTe4Mg2SnCSn2CSnTe4Mg2SnCSn2CSnTe4Mg2SnCSn2CSnTe4Mg2SnCSn2CSnTe4Mg2
_chemical_formula_sum              "N8 C42 H12 Sn48 Te48 Mg24"
_cell_length_a       23.5099
_cell_length_b       23.423
_cell_length_c       8.23821
_cell_angle_alpha    91.6971
_cell_angle_beta     89.9253
_cell_angle_gamma    120.042

_symmetry_space_group_name_H-M    'P1'
_space_group_IT_number       1

loop_
  _space_group_symop_operation_xyz
  'x, y, z'

loop_
  _atom_site_type_symbol
  _atom_site_label
  _atom_site_symmetry_multiplicity
  _atom_site_fract_x
  _atom_site_fract_y
  _atom_site_fract_z
  _atom_site_occupancy
  N   N1        1.0  0.28094  0.14574  0.05712  1.0000
  N   N2        1.0  0.85262  0.12764  0.05311  1.0000
  N   N3        1.0  0.86775  0.72071  0.06682  1.0000
  C   C1        1.0  0.31257  0.13568  0.46130  1.0000
  C   C2        1.0  0.86173  0.17877  0.44779  1.0000
  C   C3        1.0  0.81573  0.68741  0.44858  1.0000
  C   C4        1.0  0.59516  0.29460  0.44875  1.0000
  C   C5        1.0  0.70361  0.30387  0.44594  1.0000
  C   C6        1.0  0.69437  0.40351  0.44015  1.0000
  C   C7        1.0  0.73259  0.37274  0.44033  1.0000
  C   C8        1.0  0.62570  0.36358  0.44334  1.0000
  C   C9        1.0  0.63482  0.26551  0.45070  1.0000
  H   H1        1.0  0.29197  0.09024  0.38478  1.0000
  H   H2        1.0  0.89850  0.19382  0.35147  1.0000
  H   H3        1.0  0.79321  0.70690  0.36634  1.0000
  H   H4        1.0  0.78589  0.40271  0.43721  1.0000
  H   H5        1.0  0.59522  0.38642  0.44230  1.0000
  H   H6        1.0  0.61185  0.21217  0.45730  1.0000
  N   N4        1.0  0.00289  0.00004  0.07611  1.0000
  N   N5        1.0  0.27685  0.15193  0.54942  1.0000
  N   N6        1.0  0.85337  0.13557  0.55355  1.0000
  N   N7        1.0  0.86577  0.72463  0.54258  1.0000
  C   C10       1.0  0.31511  0.13644  0.94705  1.0000
  C   C11       1.0  0.86674  0.17817  0.96627  1.0000
  C   C12       1.0  0.82444  0.68360  0.95741  1.0000
  C   C13       1.0  0.59790  0.29147  0.94579  1.0000
  C   C14       1.0  0.70579  0.29959  0.95194  1.0000
  C   C15       1.0  0.69762  0.39979  0.95540  1.0000
  C   C16       1.0  0.73531  0.36863  0.95818  1.0000
  C   C17       1.0  0.62897  0.36059  0.94997  1.0000
  C   C18       1.0  0.63691  0.26166  0.94483  1.0000
  H   H7        1.0  0.29248  0.09917  0.84761  1.0000
  H   H8        1.0  0.91090  0.20229  0.89136  1.0000
  H   H9        1.0  0.81032  0.70372  0.85590  1.0000
  H   H10       1.0  0.78856  0.39891  0.96485  1.0000
  H   H11       1.0  0.59928  0.38428  0.94860  1.0000
  H   H12       1.0  0.61327  0.20810  0.94044  1.0000
  N   N8        1.0  0.99933  0.00386  0.58004  1.0000
  C  Sn1       1.0  0.15981  0.03981  0.94031  1.0000
  C   C19       1.0  0.19736  0.08816  0.01009  1.0000
  C  Sn2       1.0  0.17633  0.11674  0.12950  1.0000
  C  Sn3       1.0  0.11007  0.08267  0.18032  1.0000
  C   C20       1.0  0.06625  0.02077  0.11057  1.0000
  C  Sn4       1.0  0.59234  0.00575  0.99112  1.0000
  O  Te1       1.0  0.18191  0.01219  0.82113  1.0000
  O  Te2       1.0  0.22108  0.17872  0.19745  1.0000
  O  Te3       1.0  0.08800  0.11036  0.29959  1.0000
  O  Te4       1.0  0.54763  0.94380  0.92322  1.0000
  Mg  Mg1       1.0  0.16751  0.19585  0.35578  1.0000
  Mg  Mg2       1.0  0.60116  0.92661  0.76494  1.0000
  C  Sn5       1.0  0.88632  0.00259  0.11359  1.0000
  C   C21       1.0  0.94787  0.02107  0.04854  1.0000
  C  Sn6       1.0  0.99470  0.09889  0.99720  1.0000
  C  Sn7       1.0  0.96694  0.13205  0.01126  1.0000
  C   C22       1.0  0.90543  0.11357  0.07630  1.0000
  C  Sn8       1.0  0.86488  0.04934  0.12765  1.0000
  O  Te5       1.0  0.34542  0.93811  0.16414  1.0000
  O  Te6       1.0  0.05602  0.11620  0.93251  1.0000
  O  Te7       1.0  0.01300  0.21017  0.96063  1.0000
  O  Te8       1.0  0.80360  0.03203  0.19233  1.0000
  Mg  Mg3       1.0  0.09238  0.21006  0.88062  1.0000
  Mg  Mg4       1.0  0.26600  0.93820  0.24433  1.0000
  C  Sn9       1.0  0.95986  0.84085  0.19579  1.0000
  C   C23       1.0  0.90005  0.79797  0.11739  1.0000
  C  Sn10      1.0  0.88120  0.83463  0.99870  1.0000
  C  Sn11      1.0  0.91656  0.90195  0.95742  1.0000
  C   C24       1.0  0.97002  0.93119  0.03578  1.0000
  C  Sn12      1.0  0.99523  0.90817  0.15452  1.0000
  O  Te9       1.0  0.98410  0.81672  0.31407  1.0000
  O  Te10      1.0  0.82129  0.79083  0.92203  1.0000
  O  Te11      1.0  0.89227  0.92606  0.83904  1.0000
  O  Te12      1.0  0.05510  0.95193  0.23114  1.0000
  Mg  Mg5       1.0  0.80860  0.84720  0.76879  1.0000
  Mg  Mg6       1.0  0.06785  0.89561  0.38433  1.0000
  C  Sn13      1.0  0.11918  0.12086  0.61837  1.0000
  C   C25       1.0  0.07518  0.05823  0.55226  1.0000
  C  Sn14      1.0  0.09776  0.01638  0.49604  1.0000
  C  Sn15      1.0  0.16574  0.03753  0.50618  1.0000
  C   C26       1.0  0.20970  0.10011  0.57227  1.0000
  C  Sn16      1.0  0.18716  0.14201  0.62851  1.0000
  O  Te13      1.0  0.09551  0.16188  0.67384  1.0000
  O  Te14      1.0  0.55162  0.95400  0.43039  1.0000
  O  Te15      1.0  0.68817  0.99645  0.45063  1.0000
  O  Te16      1.0  0.23204  0.20434  0.69415  1.0000
  Mg  Mg7       1.0  0.60773  0.91599  0.37120  1.0000
  Mg  Mg8       1.0  0.17598  0.24238  0.75345  1.0000
  C  Sn17      1.0  0.99460  0.11864  0.52082  1.0000
  C   C27       1.0  0.97667  0.05977  0.59802  1.0000
  C  Sn18      1.0  0.91193  0.01919  0.64643  1.0000
  C  Sn19      1.0  0.86411  0.03782  0.61699  1.0000
  C   C28       1.0  0.88205  0.09666  0.53981  1.0000
  C  Sn20      1.0  0.94678  0.13728  0.49138  1.0000
  O  Te17      1.0  0.05961  0.15845  0.47346  1.0000
  O  Te18      1.0  0.39396  0.96057  0.72345  1.0000
  O  Te19      1.0  0.29785  0.99796  0.66443  1.0000
  O  Te20      1.0  0.96354  0.19585  0.41438  1.0000
  Mg  Mg9       1.0  0.29905  0.92288  0.76512  1.0000
  Mg  Mg10      1.0  0.05842  0.23357  0.37258  1.0000
  C  Sn21      1.0  0.88466  0.84581  0.42712  1.0000
  C   C29       1.0  0.90064  0.80208  0.49804  1.0000
  C  Sn22      1.0  0.94712  0.82377  0.62440  1.0000
  C  Sn23      1.0  0.97824  0.89054  0.68113  1.0000
  C   C30       1.0  0.96224  0.93422  0.61024  1.0000
  C  Sn24      1.0  0.91577  0.91258  0.48385  1.0000
  O  Te21      1.0  0.83805  0.82305  0.30096  1.0000
  O  Te22      1.0  0.96231  0.77914  0.69335  1.0000
  O  Te23      1.0  0.02488  0.91327  0.80739  1.0000
  O  Te24      1.0  0.90058  0.95716  0.41493  1.0000
  Mg  Mg11      1.0  0.02898  0.83369  0.86221  1.0000
  Mg  Mg12      1.0  0.83389  0.90266  0.24613  1.0000
  C  Sn25      1.0  0.43030  0.25983  0.50055  1.0000
  C   C31       1.0  0.38990  0.19670  0.43200  1.0000
  C  Sn26      1.0  0.41648  0.15752  0.38236  1.0000
  C  Sn27      1.0  0.48486  0.18192  0.40172  1.0000
  C   C32       1.0  0.52521  0.24501  0.47025  1.0000
  C  Sn28      1.0  0.49868  0.28423  0.51991  1.0000
  O  Te25      1.0  0.40267  0.29814  0.54932  1.0000
  O  Te26      1.0  0.37511  0.09458  0.31411  1.0000
  O  Te27      1.0  0.51247  0.14355  0.35288  1.0000
  O  Te28      1.0  0.54000  0.34713  0.58815  1.0000
  Mg  Mg13      1.0  0.43595  0.06106  0.26653  1.0000
  Mg  Mg14      1.0  0.47922  0.38068  0.63585  1.0000
  C  Sn29      1.0  0.84594  0.28780  0.38911  1.0000
  C   C33       1.0  0.83364  0.23079  0.46797  1.0000
  C  Sn30      1.0  0.77164  0.18899  0.53090  1.0000
  C  Sn31      1.0  0.72086  0.20447  0.51459  1.0000
  C   C34       1.0  0.73317  0.26145  0.43576  1.0000
  C  Sn32      1.0  0.79516  0.30328  0.37281  1.0000
  O  Te29      1.0  0.90830  0.32887  0.32712  1.0000
  O  Te30      1.0  0.76052  0.13228  0.60929  1.0000
  O  Te31      1.0  0.65847  0.16334  0.57667  1.0000
  O  Te32      1.0  0.80629  0.35995  0.29443  1.0000
  Mg  Mg15      1.0  0.66738  0.09179  0.67333  1.0000
  Mg  Mg16      1.0  0.89940  0.40046  0.23028  1.0000
  C  Sn33      1.0  0.70584  0.52169  0.32080  1.0000
  C   C35       1.0  0.72871  0.48351  0.39271  1.0000
  C  Sn34      1.0  0.77927  0.51170  0.50932  1.0000
  C  Sn35      1.0  0.80755  0.57946  0.55508  1.0000
  C   C36       1.0  0.78468  0.61759  0.48321  1.0000
  C  Sn36      1.0  0.73412  0.58945  0.36657  1.0000
  O  Te33      1.0  0.65524  0.49247  0.20450  1.0000
  O  Te34      1.0  0.80132  0.47254  0.57947  1.0000
  O  Te35      1.0  0.85818  0.60866  0.67148  1.0000
  O  Te36      1.0  0.71207  0.62856  0.29645  1.0000
  Mg  Mg17      1.0  0.87136  0.53492  0.73235  1.0000
  Mg  Mg18      1.0  0.64201  0.56623  0.14363  1.0000
  C  Sn37      1.0  0.47507  0.25631  0.08521  1.0000
  C   C37       1.0  0.52495  0.25897  0.99198  1.0000
  C  Sn38      1.0  0.50202  0.21483  0.85813  1.0000
  C  Sn39      1.0  0.43413  0.18094  0.81652  1.0000
  C   C38       1.0  0.39061  0.19188  0.90970  1.0000
  C  Sn40      1.0  0.40718  0.22241  0.04360  1.0000
  O  Te37      1.0  0.49908  0.30065  0.21850  1.0000
  O  Te38      1.0  0.54651  0.20471  0.76680  1.0000
  O  Te39      1.0  0.41014  0.13657  0.68311  1.0000
  O  Te40      1.0  0.36274  0.23255  0.13489  1.0000
  Mg  Mg19      1.0  0.49003  0.13944  0.59622  1.0000
  Mg  Mg20      1.0  0.41916  0.29783  0.30543  1.0000
  C  Sn41      1.0  0.81149  0.28460  0.83516  1.0000
  C   C39       1.0  0.75047  0.26344  0.90660  1.0000
  C  Sn42      1.0  0.72136  0.20183  0.02426  1.0000
  C  Sn43      1.0  0.76039  0.17442  0.07158  1.0000
  C   C40       1.0  0.82138  0.19560  0.00018  1.0000
  C  Sn44      1.0  0.85052  0.25720  0.88249  1.0000
  O  Te41      1.0  0.83329  0.33266  0.71779  1.0000
  O  Te42      1.0  0.66018  0.18144  0.09391  1.0000
  O  Te43      1.0  0.73853  0.12633  0.18905  1.0000
  O  Te44      1.0  0.91166  0.27759  0.81287  1.0000
  Mg  Mg21      1.0  0.65185  0.11468  0.24868  1.0000
  Mg  Mg22      1.0  0.92006  0.34437  0.65816  1.0000
  C  Sn45      1.0  0.82533  0.56630  0.02846  1.0000
  C   C41       1.0  0.81336  0.61895  0.94278  1.0000
  C  Sn46      1.0  0.75096  0.59105  0.87069  1.0000
  C  Sn47      1.0  0.70589  0.52268  0.88461  1.0000
  C   C42       1.0  0.72418  0.48367  0.97027  1.0000
  C  Sn48      1.0  0.78026  0.49794  0.04237  1.0000
  O  Te45      1.0  0.88797  0.59525  0.09955  1.0000
  O  Te46      1.0  0.73380  0.63109  0.78561  1.0000
  O  Te47      1.0  0.64321  0.49376  0.81342  1.0000
  O  Te48      1.0  0.79742  0.45794  0.12744  1.0000
  Mg  Mg23      1.0  0.64276  0.56876  0.71011  1.0000
  Mg  Mg24      1.0  0.88843  0.52022  0.20305  1.0000
