data_image0
_chemical_formula_structural       N3C3H3N5C3H3N2SnCSn2CSnTe4Mg2SnCSn2CSnTe4Mg2SnCSn2CSnTe4Mg2SnCSn2CSnTe4Mg2SnCSn2CSnTe4Mg2SnCSn2CSnTe4Mg2SnCSn2CSnTe4Mg2SnCSn2CSnTe4Mg2SnCSn2CSnTe4Mg2SnCSn2CSnTe4Mg2SnCSn2CSnTe4Mg2SnCSn2CSnTe4Mg2
_chemical_formula_sum              "N10 C30 H6 Sn48 Te48 Mg24"
_cell_length_a       20.8944
_cell_length_b       20.9961
_cell_length_c       8.39823
_cell_angle_alpha    91.2546
_cell_angle_beta     90.4749
_cell_angle_gamma    120.557

_symmetry_space_group_name_H-M    'P1'
_space_group_IT_number       1

loop_
  _space_group_symop_operation_xyz
  'x, y, z'

loop_
  _atom_site_type_symbol
  _atom_site_label
  _atom_site_symmetry_multiplicity
  _atom_site_fract_x
  _atom_site_fract_y
  _atom_site_fract_z
  _atom_site_occupancy
  N   N1        1.0  0.47914  0.49737  0.45305  1.0000
  N   N2        1.0  0.50836  0.97946  0.45026  1.0000
  N   N3        1.0  0.02433  0.52708  0.44359  1.0000
  C   C1        1.0  0.52518  0.50967  0.05980  1.0000
  C   C2        1.0  0.48692  0.01869  0.04885  1.0000
  C   C3        1.0  0.97932  0.47184  0.05541  1.0000
  H   H1        1.0  0.54585  0.55452  0.15092  1.0000
  H   H2        1.0  0.43979  0.99579  0.13004  1.0000
  H   H3        1.0  0.00445  0.45342  0.14535  1.0000
  N   N4        1.0  0.66335  0.33445  0.07156  1.0000
  N   N5        1.0  0.33769  0.66627  0.41218  1.0000
  N   N6        1.0  0.47464  0.49777  0.95374  1.0000
  N   N7        1.0  0.50098  0.97771  0.95520  1.0000
  N   N8        1.0  0.01743  0.51966  0.94922  1.0000
  C   C4        1.0  0.52797  0.50751  0.56186  1.0000
  C   C5        1.0  0.49476  0.02066  0.54421  1.0000
  C   C6        1.0  0.98588  0.47828  0.54791  1.0000
  H   H4        1.0  0.54654  0.55062  0.65665  1.0000
  H   H5        1.0  0.44793  0.99810  0.62603  1.0000
  H   H6        1.0  0.01122  0.45975  0.63712  1.0000
  N   N9        1.0  0.66982  0.33597  0.56988  1.0000
  N   N10       1.0  0.33079  0.66428  0.91090  1.0000
  C  Sn1       1.0  0.33387  0.53360  0.87078  1.0000
  C   C7        1.0  0.35363  0.60248  0.94011  1.0000
  C  Sn2       1.0  0.41454  0.63431  0.00462  1.0000
  C  Sn3       1.0  0.47787  0.62498  0.99965  1.0000
  C   C8        1.0  0.45810  0.55615  0.93034  1.0000
  C  Sn4       1.0  0.38667  0.51019  0.86581  1.0000
  O  Te1       1.0  0.26214  0.48862  0.80701  1.0000
  O  Te2       1.0  0.43300  0.70292  0.07335  1.0000
  O  Te3       1.0  0.53912  0.65595  0.06351  1.0000
  O  Te4       1.0  0.36821  0.44163  0.79709  1.0000
  Mg  Mg1       1.0  0.53775  0.74452  0.14427  1.0000
  Mg  Mg2       1.0  0.26350  0.40000  0.72607  1.0000
  C  Sn5       1.0  0.46414  0.79849  0.89455  1.0000
  C   C9        1.0  0.39258  0.75018  0.94777  1.0000
  C  Sn6       1.0  0.34605  0.77692  0.99219  1.0000
  C  Sn7       1.0  0.37156  0.85353  0.98314  1.0000
  C   C10       1.0  0.44307  0.90179  0.92992  1.0000
  C  Sn8       1.0  0.48965  0.87510  0.88550  1.0000
  O  Te5       1.0  0.50970  0.77054  0.85075  1.0000
  O  Te6       1.0  0.26422  0.71347  0.04507  1.0000
  O  Te7       1.0  0.31540  0.86737  0.02700  1.0000
  O  Te8       1.0  0.56091  0.92441  0.83262  1.0000
  Mg  Mg3       1.0  0.22285  0.77818  0.09135  1.0000
  Mg  Mg4       1.0  0.60230  0.85977  0.78624  1.0000
  C  Sn9       1.0  0.15542  0.54164  0.06033  1.0000
  C   C11       1.0  0.11588  0.57182  0.98630  1.0000
  C  Sn10      1.0  0.13806  0.61947  0.85851  1.0000
  C  Sn11      1.0  0.21182  0.65167  0.80348  1.0000
  C   C12       1.0  0.26184  0.63556  0.87748  1.0000
  C  Sn12      1.0  0.22917  0.57384  0.00531  1.0000
  O  Te9       1.0  0.13203  0.49385  0.18788  1.0000
  O  Te10      1.0  0.08702  0.63475  0.78644  1.0000
  O  Te11      1.0  0.23518  0.69949  0.67582  1.0000
  O  Te12      1.0  0.28016  0.55855  0.07734  1.0000
  Mg  Mg5       1.0  0.14528  0.70323  0.61672  1.0000
  Mg  Mg6       1.0  0.22196  0.49004  0.24701  1.0000
  C  Sn13      1.0  0.38285  0.53077  0.30761  1.0000
  C   C13       1.0  0.44735  0.54921  0.39563  1.0000
  C  Sn14      1.0  0.47456  0.60562  0.51293  1.0000
  C  Sn15      1.0  0.43649  0.64438  0.54295  1.0000
  C   C14       1.0  0.37202  0.62593  0.45498  1.0000
  C  Sn16      1.0  0.34478  0.56954  0.33764  1.0000
  O  Te13      1.0  0.35665  0.47418  0.19093  1.0000
  O  Te14      1.0  0.53917  0.62307  0.59934  1.0000
  O  Te15      1.0  0.46275  0.70101  0.65974  1.0000
  O  Te16      1.0  0.28021  0.55207  0.25127  1.0000
  Mg  Mg7       1.0  0.55294  0.70445  0.74595  1.0000
  Mg  Mg8       1.0  0.26636  0.47068  0.10471  1.0000
  C  Sn17      1.0  0.47177  0.84634  0.30955  1.0000
  C   C15       1.0  0.45528  0.89371  0.39575  1.0000
  C  Sn18      1.0  0.40220  0.86624  0.51455  1.0000
  C  Sn19      1.0  0.36485  0.78984  0.54797  1.0000
  C   C16       1.0  0.38135  0.74252  0.46182  1.0000
  C  Sn20      1.0  0.43442  0.76994  0.34297  1.0000
  O  Te17      1.0  0.52504  0.87501  0.19132  1.0000
  O  Te18      1.0  0.38664  0.91467  0.59910  1.0000
  O  Te19      1.0  0.31154  0.76119  0.66631  1.0000
  O  Te20      1.0  0.44999  0.72155  0.25848  1.0000
  Mg  Mg9       1.0  0.30967  0.84924  0.74892  1.0000
  Mg  Mg10      1.0  0.52697  0.78693  0.10869  1.0000
  C  Sn21      1.0  0.15668  0.62399  0.30706  1.0000
  C   C17       1.0  0.10875  0.55837  0.38293  1.0000
  C  Sn22      1.0  0.13666  0.52915  0.49304  1.0000
  C  Sn23      1.0  0.21409  0.56632  0.52815  1.0000
  C   C18       1.0  0.26197  0.63190  0.45233  1.0000
  C  Sn24      1.0  0.23411  0.66115  0.34217  1.0000
  O  Te21      1.0  0.12755  0.65220  0.19740  1.0000
  O  Te22      1.0  0.08765  0.46346  0.56732  1.0000
  O  Te23      1.0  0.24319  0.53805  0.63792  1.0000
  O  Te24      1.0  0.28307  0.72681  0.26794  1.0000
  Mg  Mg11      1.0  0.15405  0.44700  0.70806  1.0000
  Mg  Mg12      1.0  0.21673  0.74334  0.12725  1.0000
  C  Sn25      1.0  0.64877  0.44675  0.69981  1.0000
  C   C19       1.0  0.62846  0.38091  0.61508  1.0000
  C  Sn26      1.0  0.57577  0.35641  0.49060  1.0000
  C  Sn27      1.0  0.54271  0.39863  0.44989  1.0000
  C   C20       1.0  0.56302  0.46443  0.53457  1.0000
  C  Sn28      1.0  0.61571  0.48897  0.65910  1.0000
  O  Te25      1.0  0.70158  0.47019  0.82381  1.0000
  O  Te26      1.0  0.55634  0.29039  0.40766  1.0000
  O  Te27      1.0  0.48986  0.37513  0.32578  1.0000
  O  Te28      1.0  0.63515  0.55495  0.74199  1.0000
  Mg  Mg13      1.0  0.48174  0.28155  0.24812  1.0000
  Mg  Mg14      1.0  0.70977  0.56386  0.90150  1.0000
  C  Sn29      1.0  0.55885  0.20304  0.68970  1.0000
  C   C21       1.0  0.62481  0.24889  0.61131  1.0000
  C  Sn30      1.0  0.64736  0.22072  0.48557  1.0000
  C  Sn31      1.0  0.60305  0.14517  0.43709  1.0000
  C   C22       1.0  0.53714  0.09937  0.51544  1.0000
  C  Sn32      1.0  0.51454  0.12749  0.64122  1.0000
  O  Te29      1.0  0.53738  0.23238  0.81510  1.0000
  O  Te30      1.0  0.71353  0.26763  0.40906  1.0000
  O  Te31      1.0  0.62459  0.11585  0.31158  1.0000
  O  Te32      1.0  0.44841  0.08063  0.71769  1.0000
  Mg  Mg15      1.0  0.71923  0.20178  0.24459  1.0000
  Mg  Mg16      1.0  0.44264  0.14642  0.88210  1.0000
  C  Sn33      1.0  0.84625  0.35600  0.60945  1.0000
  C   C23       1.0  0.89528  0.42184  0.53564  1.0000
  C  Sn34      1.0  0.87127  0.46941  0.48550  1.0000
  C  Sn35      1.0  0.79670  0.45081  0.50974  1.0000
  C   C24       1.0  0.74772  0.38502  0.58354  1.0000
  C  Sn36      1.0  0.77168  0.33740  0.63369  1.0000
  O  Te33      1.0  0.87147  0.30927  0.65862  1.0000
  O  Te34      1.0  0.92130  0.53492  0.41193  1.0000
  O  Te35      1.0  0.77151  0.49761  0.46050  1.0000
  O  Te36      1.0  0.72170  0.27194  0.70724  1.0000
  Mg  Mg17      1.0  0.86061  0.58057  0.36598  1.0000
  Mg  Mg18      1.0  0.78234  0.22627  0.75332  1.0000
  C  Sn37      1.0  0.56264  0.36889  0.93767  1.0000
  C   C25       1.0  0.61567  0.36867  0.02375  1.0000
  C  Sn38      1.0  0.64446  0.42223  0.14715  1.0000
  C  Sn39      1.0  0.60894  0.46275  0.18539  1.0000
  C   C26       1.0  0.54541  0.44887  0.09936  1.0000
  C  Sn40      1.0  0.52712  0.40941  0.97591  1.0000
  O  Te37      1.0  0.53483  0.31508  0.81479  1.0000
  O  Te38      1.0  0.70808  0.43512  0.23147  1.0000
  O  Te39      1.0  0.63681  0.51659  0.30838  1.0000
  O  Te40      1.0  0.46353  0.39650  0.89164  1.0000
  Mg  Mg19      1.0  0.72480  0.51405  0.38868  1.0000
  Mg  Mg20      1.0  0.44675  0.31756  0.73447  1.0000
  C  Sn41      1.0  0.50354  0.15876  0.10335  1.0000
  C   C27       1.0  0.52072  0.10851  0.03293  1.0000
  C  Sn42      1.0  0.60375  0.14592  0.98637  1.0000
  C  Sn43      1.0  0.64974  0.20695  0.01079  1.0000
  C   C28       1.0  0.63255  0.25714  0.08120  1.0000
  C  Sn44      1.0  0.56006  0.23386  0.12778  1.0000
  O  Te41      1.0  0.43068  0.13422  0.14898  1.0000
  O  Te42      1.0  0.61958  0.09468  0.91615  1.0000
  O  Te43      1.0  0.73316  0.24554  0.96509  1.0000
  O  Te44      1.0  0.54422  0.28506  0.19798  1.0000
  Mg  Mg21      1.0  0.72720  0.15483  0.87433  1.0000
  Mg  Mg22      1.0  0.43663  0.22496  0.23992  1.0000
  C  Sn45      1.0  0.83878  0.35109  0.11543  1.0000
  C   C29       1.0  0.88915  0.41750  0.04528  1.0000
  C  Sn46      1.0  0.87686  0.48007  0.99493  1.0000
  C  Sn47      1.0  0.79163  0.44775  0.01521  1.0000
  C   C30       1.0  0.74131  0.38138  0.08534  1.0000
  C  Sn48      1.0  0.76407  0.33285  0.13571  1.0000
  O  Te45      1.0  0.86280  0.30345  0.16488  1.0000
  O  Te46      1.0  0.92823  0.54613  0.92507  1.0000
  O  Te47      1.0  0.77816  0.50954  0.96568  1.0000
  O  Te48      1.0  0.71275  0.26684  0.20555  1.0000
  Mg  Mg23      1.0  0.86884  0.59298  0.87709  1.0000
  Mg  Mg24      1.0  0.77209  0.21997  0.25365  1.0000
