data_image0
_chemical_formula_structural       O6C12H6C6N6H6C6H6C18H12S6C6H12C6H18O6C12H6C6N6H6C6H6C18H12S6C6H12C6H18C2Sn2C2HTe2HMgC2Sn2C2HTe2HMgC2Sn2C2HTe2HMgC2Sn2C2HTe2HMgC2Sn2C2HTe2HMgC2Sn2C2HTe2HMgC2Sn2C2HTe2HMgC2Sn2C2HTe2HMgC2Sn2C2HTe2HMgC2Sn2C2HTe2HMgC2Sn2C2HTe2HMgC2Sn2C2HTe2HMg
_chemical_formula_sum              "O12 C156 H144 N12 S12 Sn24 Te24 Mg12"
_cell_length_a       37.3681
_cell_length_b       37.2566
_cell_length_c       9.13531
_cell_angle_alpha    117.916
_cell_angle_beta     56.628
_cell_angle_gamma    119.39

_symmetry_space_group_name_H-M    'P1'
_space_group_IT_number       1

loop_
  _space_group_symop_operation_xyz
  'x, y, z'

loop_
  _atom_site_type_symbol
  _atom_site_label
  _atom_site_symmetry_multiplicity
  _atom_site_fract_x
  _atom_site_fract_y
  _atom_site_fract_z
  _atom_site_occupancy
  O   O1        1.0  0.41254  0.71804  0.00700  1.0000
  O   O2        1.0  0.28076  0.69366  0.96461  1.0000
  O   O3        1.0  0.29756  0.58309  0.02321  1.0000
  O   O4        1.0  0.58202  0.27962  0.99828  1.0000
  O   O5        1.0  0.71229  0.30270  0.04758  1.0000
  O   O6        1.0  0.69631  0.41513  0.99916  1.0000
  C   C1        1.0  0.37415  0.69353  0.00357  1.0000
  C   C2        1.0  0.30390  0.68001  0.97748  1.0000
  C   C3        1.0  0.31269  0.62103  0.01236  1.0000
  C   C4        1.0  0.62002  0.30404  0.00508  1.0000
  C   C5        1.0  0.68944  0.31681  0.03530  1.0000
  C   C6        1.0  0.68102  0.37676  0.00588  1.0000
  C   C7        1.0  0.35548  0.65043  0.02260  1.0000
  C   C8        1.0  0.34793  0.70759  0.98066  1.0000
  C   C9        1.0  0.28768  0.63655  0.98792  1.0000
  C   C10       1.0  0.63875  0.34761  0.99051  1.0000
  C   C11       1.0  0.64587  0.28933  0.02726  1.0000
  C   C12       1.0  0.70558  0.36073  0.03027  1.0000
  H   H1        1.0  0.41341  0.66125  0.04866  1.0000
  H   H2        1.0  0.34329  0.75809  0.94726  1.0000
  H   H3        1.0  0.23575  0.57596  0.98627  1.0000
  H   H4        1.0  0.58202  0.33770  0.95812  1.0000
  H   H5        1.0  0.65055  0.23842  0.05698  1.0000
  H   H6        1.0  0.75710  0.42150  0.03827  1.0000
  C   C13       1.0  0.38123  0.63814  0.04608  1.0000
  C   C14       1.0  0.36401  0.74850  0.96282  1.0000
  C   C15       1.0  0.24693  0.60823  0.97750  1.0000
  C   C16       1.0  0.61392  0.36058  0.96466  1.0000
  C   C17       1.0  0.62993  0.24802  0.04088  1.0000
  C   C18       1.0  0.74601  0.38895  0.04368  1.0000
  N   N1        1.0  0.36857  0.59942  0.06278  1.0000
  N   N2        1.0  0.40329  0.77666  0.96987  1.0000
  N   N3        1.0  0.22023  0.61952  0.96316  1.0000
  N   N4        1.0  0.62743  0.39975  0.95035  1.0000
  N   N5        1.0  0.59108  0.21952  0.03016  1.0000
  N   N6        1.0  0.77263  0.37706  0.05568  1.0000
  H   H7        1.0  0.33763  0.58004  0.05360  1.0000
  H   H8        1.0  0.41889  0.76350  0.99110  1.0000
  H   H9        1.0  0.23427  0.65192  0.96284  1.0000
  H   H10       1.0  0.65789  0.41863  0.96466  1.0000
  H   H11       1.0  0.57544  0.23261  0.00928  1.0000
  H   H12       1.0  0.75850  0.34444  0.05273  1.0000
  C   C19       1.0  0.47578  0.52576  0.03175  1.0000
  C   C20       1.0  0.47768  0.95196  0.96834  1.0000
  C   C21       1.0  0.04389  0.51537  0.97765  1.0000
  C   C22       1.0  0.52591  0.47837  0.97483  1.0000
  C   C23       1.0  0.51828  0.04353  0.02561  1.0000
  C   C24       1.0  0.95205  0.47483  0.00998  1.0000
  H   H13       1.0  0.41884  0.48191  0.18434  1.0000
  H   H14       1.0  0.53817  0.95650  0.96013  1.0000
  H   H15       1.0  0.03690  0.56883  0.97473  1.0000
  H   H16       1.0  0.58303  0.52275  0.82530  1.0000
  H   H17       1.0  0.45764  0.03886  0.03426  1.0000
  H   H18       1.0  0.95987  0.42048  0.00230  1.0000
  C   C25       1.0  0.45508  0.49058  0.10204  1.0000
  C   C26       1.0  0.51986  0.97469  0.97815  1.0000
  C   C27       1.0  0.01966  0.53618  0.98613  1.0000
  C   C28       1.0  0.54670  0.51375  0.90598  1.0000
  C   C29       1.0  0.47610  0.02075  0.01578  1.0000
  C   C30       1.0  0.97665  0.45350  0.99578  1.0000
  C   C31       1.0  0.52323  0.53727  0.92941  1.0000
  C   C32       1.0  0.45544  0.97645  0.98556  1.0000
  C   C33       1.0  0.02201  0.47087  0.96734  1.0000
  C   C34       1.0  0.47842  0.46681  0.07737  1.0000
  C   C35       1.0  0.54044  0.01902  0.00911  1.0000
  C   C36       1.0  0.97587  0.51736  0.99541  1.0000
  C   C37       1.0  0.55023  0.57318  0.84007  1.0000
  C   C38       1.0  0.41133  0.95905  0.97031  1.0000
  C   C39       1.0  0.04425  0.43825  0.90087  1.0000
  C   C40       1.0  0.45126  0.43037  0.16421  1.0000
  C   C41       1.0  0.58444  0.03646  0.02540  1.0000
  C   C42       1.0  0.95931  0.54284  0.97043  1.0000
  H   H19       1.0  0.57716  0.56438  0.70707  1.0000
  H   H20       1.0  0.40489  0.98522  0.97373  1.0000
  H   H21       1.0  0.02074  0.40631  0.86863  1.0000
  H   H22       1.0  0.47232  0.42149  0.18180  1.0000
  H   H23       1.0  0.58317  0.06153  0.15318  1.0000
  H   H24       1.0  0.98773  0.55946  0.86748  1.0000
  H   H25       1.0  0.42093  0.43683  0.80306  1.0000
  H   H26       1.0  0.57998  0.02528  0.63237  1.0000
  H   H27       1.0  0.95509  0.58084  0.74196  1.0000
  H   H28       1.0  0.52450  0.58064  0.33319  1.0000
  H   H29       1.0  0.41028  0.92569  0.37107  1.0000
  H   H30       1.0  0.01723  0.41459  0.47018  1.0000
  S   S1        1.0  0.57639  0.62009  0.98630  1.0000
  S   S2        1.0  0.36247  0.93453  0.15113  1.0000
  S   S3        1.0  0.06161  0.43809  0.05368  1.0000
  S   S4        1.0  0.42483  0.38445  0.01574  1.0000
  S   S5        1.0  0.63332  0.05860  0.83781  1.0000
  S   S6        1.0  0.93981  0.58517  0.17668  1.0000
  C   C43       1.0  0.60522  0.65989  0.86057  1.0000
  C   C44       1.0  0.31943  0.91825  0.07397  1.0000
  C   C45       1.0  0.09409  0.40100  0.88504  1.0000
  C   C46       1.0  0.40420  0.33983  0.10509  1.0000
  C   C47       1.0  0.67522  0.08491  0.93196  1.0000
  C   C48       1.0  0.95937  0.62886  0.08227  1.0000
  H   H31       1.0  0.62553  0.64596  0.71837  1.0000
  H   H32       1.0  0.31564  0.94703  0.08570  1.0000
  H   H33       1.0  0.09265  0.38512  0.96404  1.0000
  H   H34       1.0  0.38525  0.34951  0.25329  1.0000
  H   H35       1.0  0.66508  0.11069  0.05483  1.0000
  H   H36       1.0  0.97684  0.65753  0.16180  1.0000
  H   H37       1.0  0.37281  0.31403  0.56997  1.0000
  H   H38       1.0  0.70686  0.05508  0.24413  1.0000
  H   H39       1.0  0.93608  0.63325  0.53341  1.0000
  H   H40       1.0  0.61185  0.65230  0.26177  1.0000
  H   H41       1.0  0.32321  0.95101  0.52855  1.0000
  H   H42       1.0  0.11805  0.38277  0.14612  1.0000
  C   C49       1.0  0.63467  0.70022  0.94923  1.0000
  C   C50       1.0  0.27486  0.89021  0.18692  1.0000
  C   C51       1.0  0.14324  0.42206  0.76800  1.0000
  C   C52       1.0  0.44078  0.32285  0.05270  1.0000
  C   C53       1.0  0.72162  0.10255  0.78882  1.0000
  C   C54       1.0  0.92164  0.63644  0.08954  1.0000
  H   H43       1.0  0.66064  0.69336  0.94539  1.0000
  H   H44       1.0  0.26301  0.90712  0.33269  1.0000
  H   H45       1.0  0.16096  0.44676  0.85433  1.0000
  H   H46       1.0  0.46483  0.34714  0.11246  1.0000
  H   H47       1.0  0.72170  0.12629  0.74947  1.0000
  H   H48       1.0  0.89690  0.64466  0.23040  1.0000
  H   H49       1.0  0.45210  0.30908  0.41324  1.0000
  H   H50       1.0  0.69018  0.12495  0.37369  1.0000
  H   H51       1.0  0.86490  0.57056  0.56032  1.0000
  H   H52       1.0  0.53266  0.65548  0.40082  1.0000
  H   H53       1.0  0.34072  0.88153  0.40094  1.0000
  H   H54       1.0  0.10960  0.39352  0.45758  1.0000
  H   H55       1.0  0.65182  0.72492  0.87766  1.0000
  H   H56       1.0  0.24841  0.88092  0.14437  1.0000
  H   H57       1.0  0.16118  0.39824  0.67534  1.0000
  H   H58       1.0  0.42565  0.29490  0.10391  1.0000
  H   H59       1.0  0.74753  0.11821  0.84169  1.0000
  H   H60       1.0  0.93542  0.66302  0.03191  1.0000
  O   O7        1.0  0.41790  0.71813  0.47514  1.0000
  O   O8        1.0  0.28409  0.69639  0.45534  1.0000
  O   O9        1.0  0.29778  0.58703  0.53325  1.0000
  O   O10       1.0  0.58108  0.28365  0.52949  1.0000
  O   O11       1.0  0.71515  0.30852  0.55551  1.0000
  O   O12       1.0  0.69917  0.41610  0.47448  1.0000
  C   C55       1.0  0.37802  0.69501  0.48720  1.0000
  C   C56       1.0  0.30641  0.68293  0.47314  1.0000
  C   C57       1.0  0.31399  0.62461  0.51618  1.0000
  C   C58       1.0  0.62084  0.30735  0.51802  1.0000
  C   C59       1.0  0.69253  0.32117  0.53534  1.0000
  C   C60       1.0  0.68367  0.37861  0.49153  1.0000
  C   C61       1.0  0.35800  0.65281  0.51670  1.0000
  C   C62       1.0  0.35128  0.70986  0.47046  1.0000
  C   C63       1.0  0.28895  0.64032  0.49344  1.0000
  C   C64       1.0  0.63992  0.34959  0.49007  1.0000
  C   C65       1.0  0.64828  0.29314  0.53373  1.0000
  C   C66       1.0  0.70922  0.36380  0.51591  1.0000
  H   H61       1.0  0.41661  0.66154  0.53371  1.0000
  H   H62       1.0  0.34618  0.76000  0.43874  1.0000
  H   H63       1.0  0.23609  0.58062  0.50372  1.0000
  H   H64       1.0  0.58064  0.33917  0.47338  1.0000
  H   H65       1.0  0.65498  0.24289  0.55910  1.0000
  H   H66       1.0  0.76176  0.42397  0.50599  1.0000
  C   C67       1.0  0.38337  0.63970  0.53903  1.0000
  C   C68       1.0  0.36776  0.75026  0.44861  1.0000
  C   C69       1.0  0.24736  0.61243  0.49032  1.0000
  C   C70       1.0  0.61359  0.36173  0.46873  1.0000
  C   C71       1.0  0.63299  0.25235  0.55036  1.0000
  C   C72       1.0  0.75049  0.39239  0.52157  1.0000
  N   N7        1.0  0.36882  0.60135  0.56317  1.0000
  N   N8        1.0  0.40904  0.77745  0.43720  1.0000
  N   N9        1.0  0.22100  0.62251  0.46907  1.0000
  N   N10       1.0  0.62686  0.39991  0.44599  1.0000
  N   N11       1.0  0.59217  0.22456  0.55828  1.0000
  N   N12       1.0  0.77625  0.38274  0.54799  1.0000
  H   H67       1.0  0.33717  0.58317  0.55828  1.0000
  H   H68       1.0  0.42693  0.76323  0.43985  1.0000
  H   H69       1.0  0.23614  0.65319  0.45051  1.0000
  H   H70       1.0  0.65843  0.41880  0.45027  1.0000
  H   H71       1.0  0.57378  0.23876  0.55841  1.0000
  H   H72       1.0  0.76078  0.35184  0.56571  1.0000
  C   C73       1.0  0.47112  0.52348  0.53886  1.0000
  C   C74       1.0  0.47800  0.95585  0.48338  1.0000
  C   C75       1.0  0.04360  0.52021  0.50085  1.0000
  C   C76       1.0  0.52169  0.47604  0.47863  1.0000
  C   C77       1.0  0.52200  0.04580  0.50873  1.0000
  C   C78       1.0  0.95234  0.47999  0.53584  1.0000
  H   H73       1.0  0.41427  0.47888  0.68789  1.0000
  H   H74       1.0  0.53190  0.96254  0.52891  1.0000
  H   H75       1.0  0.03345  0.57706  0.54449  1.0000
  H   H76       1.0  0.57852  0.52068  0.32974  1.0000
  H   H77       1.0  0.46808  0.03916  0.46340  1.0000
  H   H78       1.0  0.96232  0.42317  0.49126  1.0000
  C   C79       1.0  0.45058  0.48794  0.60662  1.0000
  C   C80       1.0  0.51789  0.97909  0.51119  1.0000
  C   C81       1.0  0.01810  0.54272  0.52952  1.0000
  C   C82       1.0  0.54223  0.51162  0.41101  1.0000
  C   C83       1.0  0.48201  0.02259  0.48147  1.0000
  C   C84       1.0  0.97775  0.45748  0.50720  1.0000
  C   C85       1.0  0.51865  0.53533  0.43683  1.0000
  C   C86       1.0  0.45950  0.97894  0.46947  1.0000
  C   C87       1.0  0.02166  0.47628  0.49719  1.0000
  C   C88       1.0  0.47421  0.46433  0.58141  1.0000
  C   C89       1.0  0.54029  0.02273  0.52377  1.0000
  C   C90       1.0  0.97288  0.52454  0.55623  1.0000
  C   C91       1.0  0.54564  0.57201  0.35140  1.0000
  C   C92       1.0  0.41665  0.95984  0.44360  1.0000
  C   C93       1.0  0.03999  0.44746  0.49438  1.0000
  C   C94       1.0  0.44737  0.42798  0.66838  1.0000
  C   C95       1.0  0.58285  0.04162  0.55144  1.0000
  C   C96       1.0  0.94640  0.55403  0.63281  1.0000
  H   H79       1.0  0.57259  0.56362  0.21780  1.0000
  H   H80       1.0  0.41870  0.97648  0.36584  1.0000
  H   H81       1.0  0.03835  0.45613  0.63007  1.0000
  H   H82       1.0  0.46867  0.41916  0.68487  1.0000
  H   H83       1.0  0.58978  0.07589  0.62160  1.0000
  H   H84       1.0  0.91007  0.53719  0.69140  1.0000
  H   H85       1.0  0.42459  0.43909  0.29816  1.0000
  H   H86       1.0  0.59013  0.01073  0.02910  1.0000
  H   H87       1.0  0.93286  0.52195  0.92088  1.0000
  H   H88       1.0  0.52917  0.58130  0.81926  1.0000
  H   H89       1.0  0.41314  0.93516  0.83936  1.0000
  H   H90       1.0  0.07417  0.44220  0.77199  1.0000
  S   S7        1.0  0.57145  0.61788  0.50203  1.0000
  S   S8        1.0  0.36980  0.96746  0.67094  1.0000
  S   S9        1.0  0.09727  0.44515  0.32239  1.0000
  S   S10       1.0  0.42045  0.38203  0.52192  1.0000
  S   S11       1.0  0.62951  0.03246  0.32502  1.0000
  S   S12       1.0  0.95915  0.57633  0.46223  1.0000
  C   C97       1.0  0.59289  0.66225  0.40989  1.0000
  C   C98       1.0  0.32053  0.93680  0.61701  1.0000
  C   C99       1.0  0.08763  0.38830  0.26956  1.0000
  C   C100      1.0  0.39904  0.33843  0.61826  1.0000
  C   C101      1.0  0.67899  0.06202  0.37733  1.0000
  C   C102      1.0  0.92473  0.61211  0.61335  1.0000
  H   H91       1.0  0.61753  0.68687  0.46657  1.0000
  H   H92       1.0  0.29234  0.94349  0.74926  1.0000
  H   H93       1.0  0.05904  0.36969  0.23079  1.0000
  H   H94       1.0  0.38194  0.34985  0.76681  1.0000
  H   H95       1.0  0.67631  0.04740  0.46434  1.0000
  H   H96       1.0  0.93427  0.63214  0.72831  1.0000
  H   H97       1.0  0.37960  0.31518  0.04815  1.0000
  H   H98       1.0  0.67522  0.06160  0.97338  1.0000
  H   H99       1.0  0.98515  0.62189  0.94282  1.0000
  H   H100      1.0  0.57976  0.66685  0.86145  1.0000
  H   H101      1.0  0.33149  0.90077  0.92891  1.0000
  H   H102      1.0  0.07578  0.37613  0.80093  1.0000
  C   C103      1.0  0.55676  0.67957  0.46054  1.0000
  C   C104      1.0  0.31285  0.88858  0.53363  1.0000
  C   C105      1.0  0.08091  0.37473  0.41957  1.0000
  C   C106      1.0  0.43491  0.32005  0.56201  1.0000
  C   C107      1.0  0.68741  0.11030  0.46088  1.0000
  C   C108      1.0  0.87376  0.58921  0.67738  1.0000
  H   H103      1.0  0.53791  0.68946  0.60877  1.0000
  H   H104      1.0  0.30926  0.87397  0.62298  1.0000
  H   H105      1.0  0.05034  0.37968  0.54260  1.0000
  H   H106      1.0  0.46040  0.34403  0.61462  1.0000
  H   H107      1.0  0.66024  0.11759  0.59587  1.0000
  H   H108      1.0  0.86189  0.56708  0.75391  1.0000
  H   H109      1.0  0.45953  0.31314  0.90427  1.0000
  H   H110      1.0  0.73166  0.07691  0.66512  1.0000
  H   H111      1.0  0.90339  0.60781  0.01309  1.0000
  H   H112      1.0  0.61439  0.71379  0.09237  1.0000
  H   H113      1.0  0.27847  0.86085  0.17039  1.0000
  H   H114      1.0  0.14593  0.43732  0.68312  1.0000
  H   H115      1.0  0.57222  0.70751  0.40869  1.0000
  H   H116      1.0  0.28192  0.87265  0.51045  1.0000
  H   H117      1.0  0.07759  0.34066  0.37499  1.0000
  H   H118      1.0  0.41956  0.29266  0.61700  1.0000
  H   H119      1.0  0.71903  0.12579  0.47870  1.0000
  H   H120      1.0  0.85489  0.61234  0.76701  1.0000
  C   C109      1.0  0.39361  0.52082  0.05603  1.0000
  C   C110      1.0  0.43675  0.53969  0.05329  1.0000
  C  Sn1       1.0  0.45821  0.58370  0.07462  1.0000
  C  Sn2       1.0  0.43599  0.60921  0.09917  1.0000
  C   C111      1.0  0.39282  0.59003  0.10183  1.0000
  C   C112      1.0  0.37166  0.54595  0.08031  1.0000
  H   H121      1.0  0.37722  0.48672  0.03947  1.0000
  O  Te1       1.0  0.50132  0.60204  0.07147  1.0000
  O  Te2       1.0  0.45666  0.65328  0.12087  1.0000
  H   H122      1.0  0.33825  0.53135  0.08255  1.0000
  Mg  Mg1       1.0  0.51556  0.66344  0.10677  1.0000
  C   C113      1.0  0.46925  0.88220  0.05027  1.0000
  C   C114      1.0  0.36161  0.96600  0.96625  1.0000
  C  Sn3       1.0  0.33352  0.94263  0.87437  1.0000
  C  Sn4       1.0  0.30953  0.89865  0.86674  1.0000
  C   C115      1.0  0.31423  0.87917  0.95135  1.0000
  C   C116      1.0  0.44558  0.83883  0.04287  1.0000
  H   H123      1.0  0.49106  0.90053  0.12118  1.0000
  O  Te3       1.0  0.32943  0.96288  0.79111  1.0000
  O  Te4       1.0  0.28122  0.87454  0.77588  1.0000
  H   H124      1.0  0.44904  0.82352  0.10802  1.0000
  Mg  Mg2       1.0  0.28675  0.91649  0.68361  1.0000
  C   C117      1.0  0.13621  0.52426  0.88070  1.0000
  C   C118      1.0  0.09751  0.53572  0.96202  1.0000
  C  Sn5       1.0  0.20285  0.51474  0.03965  1.0000
  C  Sn6       1.0  0.24461  0.54684  0.03554  1.0000
  C   C119      1.0  0.18000  0.59908  0.95375  1.0000
  C   C120      1.0  0.17742  0.55590  0.87653  1.0000
  H   H125      1.0  0.13423  0.49086  0.82086  1.0000
  O  Te5       1.0  0.16385  0.52563  0.12040  1.0000
  O  Te6       1.0  0.24776  0.59011  0.11205  1.0000
  H   H126      1.0  0.20740  0.54704  0.81348  1.0000
  Mg  Mg3       1.0  0.18525  0.58892  0.20644  1.0000
  C   C121      1.0  0.60510  0.48159  0.96897  1.0000
  C   C122      1.0  0.56656  0.46300  0.93560  1.0000
  C  Sn7       1.0  0.54508  0.41879  0.90377  1.0000
  C  Sn8       1.0  0.56258  0.39280  0.90552  1.0000
  C   C123      1.0  0.60113  0.41171  0.93917  1.0000
  C   C124      1.0  0.62237  0.45597  0.97079  1.0000
  H   H127      1.0  0.62152  0.51584  0.99354  1.0000
  O  Te7       1.0  0.50662  0.40075  0.87058  1.0000
  O  Te8       1.0  0.54177  0.34854  0.87419  1.0000
  H   H128      1.0  0.65219  0.47036  0.99675  1.0000
  Mg  Mg4       1.0  0.49021  0.33891  0.83535  1.0000
  C   C125      1.0  0.58210  0.15521  0.14210  1.0000
  C   C126      1.0  0.57833  0.17466  0.05452  1.0000
  C  Sn9       1.0  0.44756  0.21509  0.96058  1.0000
  C  Sn10      1.0  0.42329  0.17121  0.95450  1.0000
  C   C127      1.0  0.53042  0.08803  0.04266  1.0000
  C   C128      1.0  0.55817  0.11193  0.13622  1.0000
  H   H129      1.0  0.60355  0.17370  0.21457  1.0000
  O  Te9       1.0  0.44419  0.23503  0.87378  1.0000
  O  Te10      1.0  0.39544  0.14689  0.86165  1.0000
  H   H130      1.0  0.56106  0.09687  0.20412  1.0000
  Mg  Mg5       1.0  0.40191  0.18844  0.76465  1.0000
  C   C129      1.0  0.86111  0.47055  0.11525  1.0000
  C   C130      1.0  0.89627  0.45641  0.05926  1.0000
  C  Sn11      1.0  0.78827  0.47677  0.98784  1.0000
  C  Sn12      1.0  0.74744  0.44678  0.97229  1.0000
  C   C131      1.0  0.81563  0.39723  0.02856  1.0000
  C   C132      1.0  0.82083  0.44099  0.09990  1.0000
  H   H131      1.0  0.86514  0.50441  0.17035  1.0000
  O  Te11      1.0  0.82373  0.46319  0.93262  1.0000
  O  Te12      1.0  0.74171  0.40296  0.90133  1.0000
  H   H132      1.0  0.79361  0.45193  0.14312  1.0000
  Mg  Mg6       1.0  0.79976  0.40016  0.84467  1.0000
  C   C133      1.0  0.45583  0.59964  0.60229  1.0000
  C   C134      1.0  0.44492  0.55700  0.59035  1.0000
  C  Sn13      1.0  0.40616  0.52630  0.56525  1.0000
  C  Sn14      1.0  0.37788  0.53862  0.55186  1.0000
  C   C135      1.0  0.38911  0.58135  0.56384  1.0000
  C   C136      1.0  0.42796  0.61181  0.58902  1.0000
  H   H133      1.0  0.48590  0.62321  0.62167  1.0000
  O  Te13      1.0  0.39575  0.48384  0.55368  1.0000
  O  Te14      1.0  0.33895  0.50858  0.52670  1.0000
  H   H134      1.0  0.43642  0.64482  0.59814  1.0000
  Mg  Mg7       1.0  0.33905  0.45465  0.51917  1.0000
  C   C137      1.0  0.49043  0.87570  0.38207  1.0000
  C   C138      1.0  0.46737  0.90328  0.43799  1.0000
  C  Sn15      1.0  0.42024  0.88918  0.50953  1.0000
  C  Sn16      1.0  0.39583  0.84666  0.52527  1.0000
  C   C139      1.0  0.41921  0.81932  0.46906  1.0000
  C   C140      1.0  0.46638  0.83375  0.39760  1.0000
  H   H135      1.0  0.52692  0.88687  0.32687  1.0000
  O  Te15      1.0  0.39774  0.91716  0.56469  1.0000
  O  Te16      1.0  0.34871  0.83174  0.59636  1.0000
  H   H136      1.0  0.48421  0.81240  0.35443  1.0000
  Mg  Mg8       1.0  0.33331  0.88194  0.65287  1.0000
  C   C141      1.0  0.15060  0.60104  0.38196  1.0000
  C   C142      1.0  0.17295  0.60166  0.46579  1.0000
  C  Sn17      1.0  0.15388  0.57115  0.55810  1.0000
  C  Sn18      1.0  0.11166  0.53947  0.56638  1.0000
  C   C143      1.0  0.08958  0.53911  0.48196  1.0000
  C   C144      1.0  0.10895  0.56979  0.39000  1.0000
  H   H137      1.0  0.16560  0.62476  0.31072  1.0000
  O  Te17      1.0  0.17666  0.57225  0.64116  1.0000
  O  Te18      1.0  0.09184  0.50860  0.65768  1.0000
  H   H138      1.0  0.09165  0.56928  0.32501  1.0000
  Mg  Mg9       1.0  0.13595  0.52335  0.74944  1.0000
  C   C145      1.0  0.61729  0.46991  0.45197  1.0000
  C   C146      1.0  0.60709  0.42736  0.43899  1.0000
  C  Sn19      1.0  0.56802  0.39638  0.41743  1.0000
  C  Sn20      1.0  0.53869  0.40832  0.40868  1.0000
  C   C147      1.0  0.54921  0.45097  0.42167  1.0000
  C   C148      1.0  0.58839  0.48171  0.44329  1.0000
  H   H139      1.0  0.64761  0.49369  0.46860  1.0000
  O  Te19      1.0  0.55832  0.35402  0.40476  1.0000
  O  Te20      1.0  0.49943  0.37801  0.38711  1.0000
  H   H140      1.0  0.59629  0.51464  0.45321  1.0000
  Mg  Mg10      1.0  0.50080  0.32434  0.37635  1.0000
  C   C149      1.0  0.51033  0.12695  0.61857  1.0000
  C   C150      1.0  0.53328  0.09747  0.53724  1.0000
  C  Sn21      1.0  0.58043  0.11104  0.46317  1.0000
  C  Sn22      1.0  0.60496  0.15495  0.47092  1.0000
  C   C151      1.0  0.58168  0.18419  0.55270  1.0000
  C   C152      1.0  0.53450  0.17027  0.62634  1.0000
  H   H141      1.0  0.47382  0.11618  0.67564  1.0000
  O  Te21      1.0  0.60282  0.08116  0.38234  1.0000
  O  Te22      1.0  0.65210  0.16938  0.39801  1.0000
  H   H142      1.0  0.51674  0.19311  0.68941  1.0000
  Mg  Mg11      1.0  0.66733  0.11641  0.30198  1.0000
  C   C153      1.0  0.85569  0.45345  0.46837  1.0000
  C   C154      1.0  0.82492  0.41644  0.52540  1.0000
  C  Sn23      1.0  0.83409  0.39981  0.60580  1.0000
  C  Sn24      1.0  0.87486  0.42071  0.62940  1.0000
  C   C155      1.0  0.90541  0.45774  0.57200  1.0000
  C   C156      1.0  0.89590  0.47409  0.49166  1.0000
  H   H143      1.0  0.84833  0.46612  0.40630  1.0000
  O  Te23      1.0  0.80298  0.36279  0.66194  1.0000
  O  Te24      1.0  0.88486  0.40479  0.70940  1.0000
  H   H144      1.0  0.91972  0.50277  0.44763  1.0000
  Mg  Mg12      1.0  0.83183  0.35343  0.76370  1.0000
