data_image0
_chemical_formula_structural       C24H40C4N8C16H8C20H8SnCSn2CSnTe4Mg2SnCSn2CSnTe4Mg2SnCSn2CSnTe4Mg2SnCSn2CSnTe4Mg2SnCSn2CSnTe4Mg2SnCSn2CSnTe4Mg2
_chemical_formula_sum              "C76 H56 N8 Sn24 Te24 Mg12"
_cell_length_a       24.583
_cell_length_b       23.5023
_cell_length_c       6.8034
_cell_angle_alpha    89.3854
_cell_angle_beta     90.6715
_cell_angle_gamma    89.781

_symmetry_space_group_name_H-M    'P1'
_space_group_IT_number       1

loop_
  _space_group_symop_operation_xyz
  'x, y, z'

loop_
  _atom_site_type_symbol
  _atom_site_label
  _atom_site_symmetry_multiplicity
  _atom_site_fract_x
  _atom_site_fract_y
  _atom_site_fract_z
  _atom_site_occupancy
  C   C1        1.0  0.13914  0.41367  0.47651  1.0000
  C   C2        1.0  0.86438  0.57892  0.47112  1.0000
  C   C3        1.0  0.84138  0.38526  0.40364  1.0000
  C   C4        1.0  0.16482  0.59191  0.39466  1.0000
  C   C5        1.0  0.08346  0.63017  0.53976  1.0000
  C   C6        1.0  0.92420  0.33877  0.51393  1.0000
  C   C7        1.0  0.90200  0.66371  0.61608  1.0000
  C   C8        1.0  0.10074  0.32580  0.59756  1.0000
  C   C9        1.0  0.10702  0.44371  0.60709  1.0000
  C   C10       1.0  0.89552  0.54567  0.60025  1.0000
  C   C11       1.0  0.87160  0.42001  0.27783  1.0000
  C   C12       1.0  0.13283  0.56052  0.26499  1.0000
  C   C13       1.0  0.05195  0.59816  0.41087  1.0000
  C   C14       1.0  0.95387  0.37473  0.39240  1.0000
  C   C15       1.0  0.93221  0.62974  0.74775  1.0000
  C   C16       1.0  0.06926  0.35638  0.72965  1.0000
  C   C17       1.0  0.74084  0.30482  0.04110  1.0000
  C   C18       1.0  0.33123  0.28601  0.98027  1.0000
  C   C19       1.0  0.29986  0.31841  0.10682  1.0000
  C   C20       1.0  0.70850  0.26834  0.15105  1.0000
  C   C21       1.0  0.73129  0.19111  0.93128  1.0000
  C   C22       1.0  0.22291  0.25595  0.04830  1.0000
  C   C23       1.0  0.25402  0.22385  0.92245  1.0000
  C   C24       1.0  0.76365  0.22757  0.82155  1.0000
  H   H1        1.0  0.16517  0.43682  0.37531  1.0000
  H   H2        1.0  0.83736  0.55933  0.36388  1.0000
  H   H3        1.0  0.79722  0.38834  0.40564  1.0000
  H   H4        1.0  0.20896  0.58982  0.38956  1.0000
  H   H5        1.0  0.06388  0.65592  0.65069  1.0000
  H   H6        1.0  0.94465  0.30670  0.60481  1.0000
  H   H7        1.0  0.90300  0.70986  0.62639  1.0000
  H   H8        1.0  0.09857  0.27963  0.59167  1.0000
  H   H9        1.0  0.10944  0.48993  0.60504  1.0000
  H   H10       1.0  0.89238  0.49958  0.59051  1.0000
  H   H11       1.0  0.85004  0.45097  0.18567  1.0000
  H   H12       1.0  0.15288  0.53364  0.15868  1.0000
  H   H13       1.0  0.00785  0.60055  0.42214  1.0000
  H   H14       1.0  0.99800  0.37057  0.39372  1.0000
  H   H15       1.0  0.95739  0.65059  0.85782  1.0000
  H   H16       1.0  0.04239  0.33315  0.82726  1.0000
  H   H17       1.0  0.74515  0.34920  0.08298  1.0000
  H   H18       1.0  0.37335  0.29752  0.95262  1.0000
  H   H19       1.0  0.31720  0.35541  0.17908  1.0000
  H   H20       1.0  0.68681  0.28289  0.27978  1.0000
  H   H21       1.0  0.72677  0.14679  0.88907  1.0000
  H   H22       1.0  0.18064  0.24551  0.07673  1.0000
  H   H23       1.0  0.23741  0.18697  0.84781  1.0000
  H   H24       1.0  0.78536  0.21301  0.69296  1.0000
  H   H25       1.0  0.02165  0.38511  0.08969  1.0000
  H   H26       1.0  0.98012  0.59384  0.10439  1.0000
  H   H27       1.0  0.59361  0.02164  0.09106  1.0000
  H   H28       1.0  0.39745  0.96544  0.10940  1.0000
  H   H29       1.0  0.97021  0.39001  0.90539  1.0000
  H   H30       1.0  0.03026  0.59321  0.91900  1.0000
  H   H31       1.0  0.39324  0.01956  0.92555  1.0000
  H   H32       1.0  0.59147  0.96912  0.90513  1.0000
  H   H33       1.0  0.46673  0.09832  0.92435  1.0000
  H   H34       1.0  0.52006  0.89253  0.90889  1.0000
  H   H35       1.0  0.90018  0.47049  0.91485  1.0000
  H   H36       1.0  0.10023  0.51254  0.91403  1.0000
  H   H37       1.0  0.51902  0.09664  0.10571  1.0000
  H   H38       1.0  0.47078  0.89070  0.09715  1.0000
  H   H39       1.0  0.09818  0.45805  0.09655  1.0000
  H   H40       1.0  0.90448  0.52229  0.10198  1.0000
  C   C25       1.0  0.07111  0.41604  0.73602  1.0000
  C   C26       1.0  0.93049  0.57010  0.74128  1.0000
  C   C27       1.0  0.92845  0.41567  0.26919  1.0000
  C   C28       1.0  0.07574  0.56223  0.27172  1.0000
  N   N1        1.0  0.33134  0.81802  0.34360  1.0000
  N   N2        1.0  0.64012  0.18821  0.35250  1.0000
  N   N3        1.0  0.16623  0.32044  0.33876  1.0000
  N   N4        1.0  0.83436  0.67033  0.34572  1.0000
  N   N5        1.0  0.66733  0.82176  0.66409  1.0000
  N   N6        1.0  0.32448  0.15729  0.68124  1.0000
  N   N7        1.0  0.83761  0.30502  0.63655  1.0000
  N   N8        1.0  0.17471  0.65766  0.66198  1.0000
  C   C29       1.0  0.28767  0.83810  0.26129  1.0000
  C   C30       1.0  0.67120  0.17111  0.21374  1.0000
  C   C31       1.0  0.21402  0.33636  0.28392  1.0000
  C   C32       1.0  0.85408  0.71036  0.23758  1.0000
  C   C33       1.0  0.71872  0.83190  0.68204  1.0000
  C   C34       1.0  0.34242  0.20355  0.75924  1.0000
  C   C35       1.0  0.80435  0.32351  0.76636  1.0000
  C   C36       1.0  0.16147  0.70875  0.71121  1.0000
  C   C37       1.0  0.96313  0.45307  0.13543  1.0000
  C   C38       1.0  0.03964  0.52626  0.13858  1.0000
  C   C39       1.0  0.53239  0.95602  0.13510  1.0000
  C   C40       1.0  0.45748  0.03149  0.14323  1.0000
  C   C41       1.0  0.03559  0.45146  0.87144  1.0000
  C   C42       1.0  0.96522  0.53174  0.87569  1.0000
  C   C43       1.0  0.45647  0.95630  0.87718  1.0000
  C   C44       1.0  0.52862  0.03433  0.87527  1.0000
  H   H41       1.0  0.27353  0.88183  0.28806  1.0000
  H   H42       1.0  0.67453  0.12575  0.17617  1.0000
  H   H43       1.0  0.23388  0.37454  0.34308  1.0000
  H   H44       1.0  0.89806  0.71898  0.23353  1.0000
  H   H45       1.0  0.73927  0.86242  0.58441  1.0000
  H   H46       1.0  0.38407  0.21883  0.73332  1.0000
  H   H47       1.0  0.80157  0.36903  0.80201  1.0000
  H   H48       1.0  0.12574  0.73059  0.64631  1.0000
  C   C45       1.0  0.86798  0.63868  0.47406  1.0000
  C   C46       1.0  0.13661  0.35382  0.46981  1.0000
  C   C47       1.0  0.14069  0.62768  0.53328  1.0000
  C   C48       1.0  0.86724  0.34379  0.52246  1.0000
  C   C49       1.0  0.76928  0.28483  0.87686  1.0000
  C   C50       1.0  0.30893  0.23800  0.88811  1.0000
  C   C51       1.0  0.24556  0.30347  0.14433  1.0000
  C   C52       1.0  0.70364  0.21085  0.09753  1.0000
  C   C53       1.0  0.99757  0.41516  0.99937  1.0000
  C   C54       1.0  0.00384  0.56596  0.00868  1.0000
  C   C55       1.0  0.56617  0.99552  0.00075  1.0000
  C   C56       1.0  0.42164  0.99304  0.01304  1.0000
  C   C57       1.0  0.49283  0.06981  0.01302  1.0000
  C   C58       1.0  0.49522  0.91923  0.00490  1.0000
  C   C59       1.0  0.92871  0.49444  0.00772  1.0000
  C   C60       1.0  0.07289  0.48707  0.00602  1.0000
  C   C61       1.0  0.00204  0.48861  0.26395  1.0000
  C   C62       1.0  0.49611  0.99321  0.26609  1.0000
  C   C63       1.0  0.99982  0.49232  0.74693  1.0000
  C   C64       1.0  0.49127  0.99629  0.74950  1.0000
  H   H49       1.0  0.97776  0.51511  0.36167  1.0000
  H   H50       1.0  0.02711  0.46037  0.35734  1.0000
  H   H51       1.0  0.47243  0.96537  0.36243  1.0000
  H   H52       1.0  0.52132  0.02015  0.36095  1.0000
  H   H53       1.0  0.02537  0.51859  0.65157  1.0000
  H   H54       1.0  0.97334  0.46706  0.65100  1.0000
  H   H55       1.0  0.51684  0.97156  0.65064  1.0000
  H   H56       1.0  0.46457  0.02303  0.65686  1.0000
  C  Sn1       1.0  0.62584  0.94242  0.39092  1.0000
  C   C65       1.0  0.58709  0.92283  0.25605  1.0000
  C  Sn2       1.0  0.56825  0.86691  0.26769  1.0000
  C  Sn3       1.0  0.58854  0.82980  0.41733  1.0000
  C   C66       1.0  0.62725  0.84939  0.55210  1.0000
  C  Sn4       1.0  0.64612  0.90530  0.54055  1.0000
  O  Te1       1.0  0.64409  0.99849  0.37651  1.0000
  O  Te2       1.0  0.52952  0.84829  0.13115  1.0000
  O  Te3       1.0  0.57025  0.77369  0.43164  1.0000
  O  Te4       1.0  0.68483  0.92392  0.67700  1.0000
  Mg  Mg1       1.0  0.51723  0.76820  0.21153  1.0000
  Mg  Mg2       1.0  0.70078  0.00401  0.59683  1.0000
  C  Sn5       1.0  0.36720  0.04086  0.40995  1.0000
  C   C67       1.0  0.40264  0.06160  0.26720  1.0000
  C  Sn6       1.0  0.41921  0.11838  0.26930  1.0000
  C  Sn7       1.0  0.39998  0.15519  0.41724  1.0000
  C   C68       1.0  0.36456  0.13444  0.55989  1.0000
  C  Sn8       1.0  0.34796  0.07767  0.55789  1.0000
  O  Te5       1.0  0.34752  0.98394  0.40502  1.0000
  O  Te6       1.0  0.45465  0.13815  0.12500  1.0000
  O  Te7       1.0  0.41603  0.21215  0.42206  1.0000
  O  Te8       1.0  0.31255  0.05789  0.70209  1.0000
  Mg  Mg3       1.0  0.46484  0.21908  0.19379  1.0000
  Mg  Mg4       1.0  0.29871  0.97697  0.63351  1.0000
  C  Sn9       1.0  0.19159  0.82084  0.03867  1.0000
  C   C69       1.0  0.23783  0.80343  0.14495  1.0000
  C  Sn10      1.0  0.26622  0.75447  0.09164  1.0000
  C  Sn11      1.0  0.25130  0.71915  0.92863  1.0000
  C   C70       1.0  0.20510  0.73657  0.82242  1.0000
  C  Sn12      1.0  0.17667  0.78551  0.87565  1.0000
  O  Te9       1.0  0.16384  0.86992  0.09457  1.0000
  O  Te10      1.0  0.31232  0.73790  0.20019  1.0000
  O  Te11      1.0  0.27910  0.67003  0.87278  1.0000
  O  Te12      1.0  0.13060  0.80209  0.76719  1.0000
  Mg  Mg5       1.0  0.33640  0.66792  0.06652  1.0000
  Mg  Mg6       1.0  0.10651  0.87208  0.90065  1.0000
  C  Sn13      1.0  0.42842  0.84552  0.52530  1.0000
  C   C71       1.0  0.37205  0.83810  0.51821  1.0000
  C  Sn14      1.0  0.33781  0.87492  0.61930  1.0000
  C  Sn15      1.0  0.36036  0.92012  0.72970  1.0000
  C   C72       1.0  0.41669  0.92752  0.73673  1.0000
  C  Sn16      1.0  0.45097  0.89071  0.63569  1.0000
  O  Te13      1.0  0.46188  0.80820  0.42308  1.0000
  O  Te14      1.0  0.28159  0.86664  0.61006  1.0000
  O  Te15      1.0  0.32684  0.95744  0.83196  1.0000
  O  Te16      1.0  0.50716  0.89898  0.64487  1.0000
  Mg  Mg7       1.0  0.25284  0.92870  0.77424  1.0000
  Mg  Mg8       1.0  0.53593  0.83696  0.48068  1.0000
  C  Sn17      1.0  0.53110  0.11511  0.55429  1.0000
  C   C73       1.0  0.55324  0.07123  0.67052  1.0000
  C  Sn18      1.0  0.60926  0.06845  0.70652  1.0000
  C  Sn19      1.0  0.64386  0.11041  0.62475  1.0000
  C   C74       1.0  0.62172  0.15426  0.50862  1.0000
  C  Sn20      1.0  0.56571  0.15707  0.47251  1.0000
  O  Te17      1.0  0.47499  0.11706  0.52024  1.0000
  O  Te18      1.0  0.63045  0.02417  0.82314  1.0000
  O  Te19      1.0  0.70001  0.10843  0.65889  1.0000
  O  Te20      1.0  0.54451  0.20132  0.35600  1.0000
  Mg  Mg9       1.0  0.70952  0.03985  0.82736  1.0000
  Mg  Mg10      1.0  0.46545  0.18570  0.35177  1.0000
  C  Sn21      1.0  0.75179  0.73280  0.06117  1.0000
  C   C75       1.0  0.80857  0.73245  0.07432  1.0000
  C  Sn22      1.0  0.84214  0.77010  0.97310  1.0000
  C  Sn23      1.0  0.81516  0.81212  0.85639  1.0000
  C   C76       1.0  0.75842  0.81246  0.84330  1.0000
  C  Sn24      1.0  0.72806  0.77170  0.94446  1.0000
  O  Te21      1.0  0.72230  0.69164  0.16364  1.0000
  O  Te22      1.0  0.89887  0.76888  0.98847  1.0000
  O  Te23      1.0  0.84471  0.85330  0.75389  1.0000
  O  Te24      1.0  0.67138  0.77292  0.92916  1.0000
  Mg  Mg11      1.0  0.92117  0.83400  0.82131  1.0000
  Mg  Mg12      1.0  0.64578  0.71096  0.09632  1.0000
