data_image0
_chemical_formula_structural       C24H40C4N8C16H8C20H8C2Sn2C2HTe2HMgC2Sn2C2HTe2HMgC2Sn2C2HTe2HMgC2Sn2C2HTe2HMgC2Sn2C2HTe2HMgC2Sn2C2HTe2HMg
_chemical_formula_sum              "C88 H68 N8 Sn12 Te12 Mg6"
_cell_length_a       24.583
_cell_length_b       23.5023
_cell_length_c       6.8034
_cell_angle_alpha    89.3854
_cell_angle_beta     90.6715
_cell_angle_gamma    89.781

_symmetry_space_group_name_H-M    'P1'
_space_group_IT_number       1

loop_
  _space_group_symop_operation_xyz
  'x, y, z'

loop_
  _atom_site_type_symbol
  _atom_site_label
  _atom_site_symmetry_multiplicity
  _atom_site_fract_x
  _atom_site_fract_y
  _atom_site_fract_z
  _atom_site_occupancy
  C   C1        1.0  0.55766  0.15321  0.50228  1.0000
  C   C2        1.0  0.13914  0.41367  0.47651  1.0000
  C   C3        1.0  0.86438  0.57892  0.47112  1.0000
  C   C4        1.0  0.84138  0.38526  0.40364  1.0000
  C   C5        1.0  0.92420  0.33877  0.51393  1.0000
  C   C6        1.0  0.90200  0.66371  0.61608  1.0000
  C   C7        1.0  0.10074  0.32580  0.59756  1.0000
  C   C8        1.0  0.64276  0.10538  0.57604  1.0000
  C   C9        1.0  0.53133  0.11602  0.62923  1.0000
  C   C10       1.0  0.10702  0.44371  0.60709  1.0000
  C   C11       1.0  0.89552  0.54567  0.60025  1.0000
  C   C12       1.0  0.87160  0.42001  0.27783  1.0000
  C   C13       1.0  0.95387  0.37473  0.39240  1.0000
  C   C14       1.0  0.93221  0.62974  0.74775  1.0000
  C   C15       1.0  0.06926  0.35638  0.72965  1.0000
  C   C16       1.0  0.61601  0.06962  0.70879  1.0000
  C   C17       1.0  0.23865  0.71620  0.95196  1.0000
  C   C18       1.0  0.74084  0.30482  0.04110  1.0000
  C   C19       1.0  0.70850  0.26834  0.15105  1.0000
  C   C20       1.0  0.26900  0.74737  0.08477  1.0000
  C   C21       1.0  0.21028  0.82940  0.02569  1.0000
  C   C22       1.0  0.73129  0.19111  0.93128  1.0000
  C   C23       1.0  0.76365  0.22757  0.82155  1.0000
  C   C24       1.0  0.17982  0.79800  0.89137  1.0000
  H   H1        1.0  0.53499  0.18613  0.42272  1.0000
  H   H2        1.0  0.16517  0.43682  0.37531  1.0000
  H   H3        1.0  0.83736  0.55933  0.36388  1.0000
  H   H4        1.0  0.79722  0.38834  0.40564  1.0000
  H   H5        1.0  0.94465  0.30670  0.60481  1.0000
  H   H6        1.0  0.90300  0.70986  0.62639  1.0000
  H   H7        1.0  0.09857  0.27963  0.59167  1.0000
  H   H8        1.0  0.68652  0.10189  0.55659  1.0000
  H   H9        1.0  0.48745  0.12012  0.64360  1.0000
  H   H10       1.0  0.10944  0.48993  0.60504  1.0000
  H   H11       1.0  0.89238  0.49958  0.59051  1.0000
  H   H12       1.0  0.85004  0.45097  0.18567  1.0000
  H   H13       1.0  0.99800  0.37057  0.39372  1.0000
  H   H14       1.0  0.95739  0.65059  0.85782  1.0000
  H   H15       1.0  0.04239  0.33315  0.82726  1.0000
  H   H16       1.0  0.63966  0.03776  0.78988  1.0000
  H   H17       1.0  0.24863  0.67214  0.92042  1.0000
  H   H18       1.0  0.74515  0.34920  0.08298  1.0000
  H   H19       1.0  0.68681  0.28289  0.27978  1.0000
  H   H20       1.0  0.30406  0.72894  0.16136  1.0000
  H   H21       1.0  0.19962  0.87350  0.05512  1.0000
  H   H22       1.0  0.72677  0.14679  0.88907  1.0000
  H   H23       1.0  0.78536  0.21301  0.69296  1.0000
  H   H24       1.0  0.14517  0.81743  0.81478  1.0000
  H   H25       1.0  0.02165  0.38511  0.08969  1.0000
  H   H26       1.0  0.98012  0.59384  0.10439  1.0000
  H   H27       1.0  0.59361  0.02164  0.09106  1.0000
  H   H28       1.0  0.39745  0.96544  0.10940  1.0000
  H   H29       1.0  0.97021  0.39001  0.90539  1.0000
  H   H30       1.0  0.03026  0.59321  0.91900  1.0000
  H   H31       1.0  0.39324  0.01956  0.92555  1.0000
  H   H32       1.0  0.59147  0.96912  0.90513  1.0000
  H   H33       1.0  0.46673  0.09832  0.92435  1.0000
  H   H34       1.0  0.52006  0.89253  0.90889  1.0000
  H   H35       1.0  0.90018  0.47049  0.91485  1.0000
  H   H36       1.0  0.10023  0.51254  0.91403  1.0000
  H   H37       1.0  0.51902  0.09664  0.10571  1.0000
  H   H38       1.0  0.47078  0.89070  0.09715  1.0000
  H   H39       1.0  0.09818  0.45805  0.09655  1.0000
  H   H40       1.0  0.90448  0.52229  0.10198  1.0000
  C   C25       1.0  0.55977  0.07386  0.73788  1.0000
  C   C26       1.0  0.07111  0.41604  0.73602  1.0000
  C   C27       1.0  0.93049  0.57010  0.74128  1.0000
  C   C28       1.0  0.92845  0.41567  0.26919  1.0000
  N   N1        1.0  0.33134  0.81802  0.34360  1.0000
  N   N2        1.0  0.64012  0.18821  0.35250  1.0000
  N   N3        1.0  0.16623  0.32044  0.33876  1.0000
  N   N4        1.0  0.83436  0.67033  0.34572  1.0000
  N   N5        1.0  0.66733  0.82176  0.66409  1.0000
  N   N6        1.0  0.32448  0.15729  0.68124  1.0000
  N   N7        1.0  0.83761  0.30502  0.63655  1.0000
  N   N8        1.0  0.17471  0.65766  0.66198  1.0000
  C   C29       1.0  0.28767  0.83810  0.26129  1.0000
  C   C30       1.0  0.67120  0.17111  0.21374  1.0000
  C   C31       1.0  0.21402  0.33636  0.28392  1.0000
  C   C32       1.0  0.85408  0.71036  0.23758  1.0000
  C   C33       1.0  0.71872  0.83190  0.68204  1.0000
  C   C34       1.0  0.34242  0.20355  0.75924  1.0000
  C   C35       1.0  0.80435  0.32351  0.76636  1.0000
  C   C36       1.0  0.16147  0.70875  0.71121  1.0000
  C   C37       1.0  0.96313  0.45307  0.13543  1.0000
  C   C38       1.0  0.03964  0.52626  0.13858  1.0000
  C   C39       1.0  0.53239  0.95602  0.13510  1.0000
  C   C40       1.0  0.45748  0.03149  0.14323  1.0000
  C   C41       1.0  0.03559  0.45146  0.87144  1.0000
  C   C42       1.0  0.96522  0.53174  0.87569  1.0000
  C   C43       1.0  0.45647  0.95630  0.87718  1.0000
  C   C44       1.0  0.52862  0.03433  0.87527  1.0000
  H   H41       1.0  0.27353  0.88183  0.28806  1.0000
  H   H42       1.0  0.67453  0.12575  0.17617  1.0000
  H   H43       1.0  0.23388  0.37454  0.34308  1.0000
  H   H44       1.0  0.89806  0.71898  0.23353  1.0000
  H   H45       1.0  0.73927  0.86242  0.58441  1.0000
  H   H46       1.0  0.38407  0.21883  0.73332  1.0000
  H   H47       1.0  0.80157  0.36903  0.80201  1.0000
  H   H48       1.0  0.12574  0.73059  0.64631  1.0000
  C   C45       1.0  0.61396  0.14816  0.47236  1.0000
  C   C46       1.0  0.86798  0.63868  0.47406  1.0000
  C   C47       1.0  0.13661  0.35382  0.46981  1.0000
  C   C48       1.0  0.86724  0.34379  0.52246  1.0000
  C   C49       1.0  0.76928  0.28483  0.87686  1.0000
  C   C50       1.0  0.19358  0.74109  0.85270  1.0000
  C   C51       1.0  0.25531  0.80456  0.12362  1.0000
  C   C52       1.0  0.70364  0.21085  0.09753  1.0000
  C   C53       1.0  0.99757  0.41516  0.99937  1.0000
  C   C54       1.0  0.00384  0.56596  0.00868  1.0000
  C   C55       1.0  0.56617  0.99552  0.00075  1.0000
  C   C56       1.0  0.42164  0.99304  0.01304  1.0000
  C   C57       1.0  0.49283  0.06981  0.01302  1.0000
  C   C58       1.0  0.49522  0.91923  0.00490  1.0000
  C   C59       1.0  0.92871  0.49444  0.00772  1.0000
  C   C60       1.0  0.07289  0.48707  0.00602  1.0000
  C   C61       1.0  0.00204  0.48861  0.26395  1.0000
  C   C62       1.0  0.49611  0.99321  0.26609  1.0000
  C   C63       1.0  0.99982  0.49232  0.74693  1.0000
  C   C64       1.0  0.49127  0.99629  0.74950  1.0000
  H   H49       1.0  0.97776  0.51511  0.36167  1.0000
  H   H50       1.0  0.02711  0.46037  0.35734  1.0000
  H   H51       1.0  0.47243  0.96537  0.36243  1.0000
  H   H52       1.0  0.52132  0.02015  0.36095  1.0000
  H   H53       1.0  0.02537  0.51859  0.65157  1.0000
  H   H54       1.0  0.97334  0.46706  0.65100  1.0000
  H   H55       1.0  0.51684  0.97156  0.65064  1.0000
  H   H56       1.0  0.46457  0.02303  0.65686  1.0000
  C   C65       1.0  0.72699  0.76298  0.02381  1.0000
  C   C66       1.0  0.74542  0.79793  0.87528  1.0000
  C  Sn1       1.0  0.80037  0.80764  0.83764  1.0000
  C  Sn2       1.0  0.84080  0.77863  0.95101  1.0000
  C   C67       1.0  0.82195  0.74371  0.09918  1.0000
  C   C68       1.0  0.76684  0.73432  0.13565  1.0000
  H   H57       1.0  0.68435  0.75568  0.05196  1.0000
  O  Te1       1.0  0.81482  0.84584  0.68874  1.0000
  O  Te2       1.0  0.89602  0.78752  0.91645  1.0000
  H   H58       1.0  0.75510  0.70481  0.25057  1.0000
  Mg  Mg1       1.0  0.89537  0.84369  0.69743  1.0000
  C   C69       1.0  0.61507  0.94592  0.44292  1.0000
  C   C70       1.0  0.58024  0.92731  0.29328  1.0000
  C  Sn3       1.0  0.57144  0.86919  0.26655  1.0000
  C  Sn4       1.0  0.59805  0.82907  0.39224  1.0000
  C   C71       1.0  0.63278  0.84812  0.54160  1.0000
  C   C72       1.0  0.64132  0.90637  0.56700  1.0000
  H   H59       1.0  0.62166  0.99099  0.46265  1.0000
  O  Te3       1.0  0.53652  0.85133  0.11628  1.0000
  O  Te4       1.0  0.58996  0.77074  0.36884  1.0000
  H   H60       1.0  0.66826  0.92077  0.68295  1.0000
  Mg  Mg2       1.0  0.53860  0.76734  0.14295  1.0000
  C   C73       1.0  0.24108  0.22528  0.95050  1.0000
  C   C74       1.0  0.29393  0.23524  0.88529  1.0000
  C  Sn5       1.0  0.32409  0.28052  0.96032  1.0000
  C  Sn6       1.0  0.29755  0.31955  0.10331  1.0000
  C   C75       1.0  0.24466  0.30921  0.16769  1.0000
  C   C76       1.0  0.21484  0.26379  0.09158  1.0000
  H   H61       1.0  0.21801  0.19012  0.89171  1.0000
  O  Te5       1.0  0.37683  0.28987  0.89351  1.0000
  O  Te6       1.0  0.32680  0.36511  0.18081  1.0000
  H   H62       1.0  0.17394  0.25607  0.14219  1.0000
  Mg  Mg3       1.0  0.39719  0.36054  0.04326  1.0000
  C   C77       1.0  0.41398  0.13955  0.28837  1.0000
  C   C78       1.0  0.42342  0.08095  0.28088  1.0000
  C  Sn7       1.0  0.39541  0.04392  0.40543  1.0000
  C  Sn8       1.0  0.35726  0.06609  0.53978  1.0000
  C   C79       1.0  0.34808  0.12479  0.54604  1.0000
  C   C80       1.0  0.37635  0.16146  0.42079  1.0000
  H   H63       1.0  0.43583  0.16793  0.19139  1.0000
  O  Te7       1.0  0.40168  0.98548  0.39607  1.0000
  O  Te8       1.0  0.32869  0.03004  0.66588  1.0000
  H   H64       1.0  0.36901  0.20683  0.42654  1.0000
  Mg  Mg4       1.0  0.35268  0.95358  0.59796  1.0000
  C   C81       1.0  0.06967  0.62714  0.51848  1.0000
  C   C82       1.0  0.12611  0.62715  0.54543  1.0000
  C  Sn9       1.0  0.15930  0.59554  0.42160  1.0000
  C  Sn10      1.0  0.13542  0.56339  0.26804  1.0000
  C   C83       1.0  0.07892  0.56369  0.24221  1.0000
  C   C84       1.0  0.04609  0.59545  0.36701  1.0000
  H   H65       1.0  0.04427  0.65174  0.61496  1.0000
  O  Te9       1.0  0.21562  0.59601  0.45063  1.0000
  O  Te10      1.0  0.16764  0.53144  0.14211  1.0000
  H   H66       1.0  0.00239  0.59546  0.34603  1.0000
  Mg  Mg5       1.0  0.24240  0.54566  0.24083  1.0000
  C   C85       1.0  0.44668  0.87561  0.55728  1.0000
  C   C86       1.0  0.42894  0.91165  0.70567  1.0000
  C  Sn11      1.0  0.37376  0.91469  0.75153  1.0000
  C  Sn12      1.0  0.33574  0.88096  0.64666  1.0000
  C   C87       1.0  0.35391  0.84501  0.49855  1.0000
  C   C88       1.0  0.40921  0.84231  0.45382  1.0000
  H   H67       1.0  0.48947  0.87349  0.52273  1.0000
  O  Te11      1.0  0.35672  0.95094  0.90017  1.0000
  O  Te12      1.0  0.28036  0.88316  0.68953  1.0000
  H   H68       1.0  0.42294  0.81437  0.33901  1.0000
  Mg  Mg6       1.0  0.27701  0.93910  0.90463  1.0000
