data_image0
_chemical_formula_structural       N2C6N2C2H4N2C6N2C2H4C2Sn2C2HTe2HMgC2Sn2C2HTe2HMgC2Sn2C2HTe2HMgC2Sn2C2HTe2HMgC2Sn2C2HTe2HMgC2Sn2C2HTe2HMgC2Sn2C2HTe2HMgC2Sn2C2HTe2HMgC2Sn2C2HTe2HMgC2Sn2C2HTe2HMgC2Sn2C2HTe2HMgC2Sn2C2HTe2HMgC2Sn2C2HTe2HMgC2Sn2C2HTe2HMgC2Sn2C2HTe2HMgC2Sn2C2HTe2HMg
_chemical_formula_sum              "N8 C80 H40 Sn32 Te32 Mg16"
_cell_length_a       19.4564
_cell_length_b       15.9889
_cell_length_c       10.931
_cell_angle_alpha    90.2718
_cell_angle_beta     93.8675
_cell_angle_gamma    90.0419

_symmetry_space_group_name_H-M    'P1'
_space_group_IT_number       1

loop_
  _space_group_symop_operation_xyz
  'x, y, z'

loop_
  _atom_site_type_symbol
  _atom_site_label
  _atom_site_symmetry_multiplicity
  _atom_site_fract_x
  _atom_site_fract_y
  _atom_site_fract_z
  _atom_site_occupancy
  N   N1        1.0  0.27996  0.22855  0.16053  1.0000
  N   N2        1.0  0.29267  0.74508  0.13917  1.0000
  C   C1        1.0  0.23497  0.26336  0.08461  1.0000
  C   C2        1.0  0.22919  0.75137  0.09688  1.0000
  C   C3        1.0  0.00722  0.54279  0.24685  1.0000
  C   C4        1.0  0.00780  0.45706  0.24688  1.0000
  C   C5        1.0  0.77954  0.74369  0.39228  1.0000
  C   C6        1.0  0.78218  0.26107  0.40855  1.0000
  N   N3        1.0  0.72121  0.74671  0.32884  1.0000
  N   N4        1.0  0.73808  0.22568  0.33158  1.0000
  C   C7        1.0  0.50902  0.04082  0.49256  1.0000
  C   C8        1.0  0.50737  0.95499  0.49431  1.0000
  H   H1        1.0  0.21525  0.20574  0.52778  1.0000
  H   H2        1.0  0.23845  0.73169  0.48091  1.0000
  H   H3        1.0  0.79032  0.78439  0.47283  1.0000
  H   H4        1.0  0.77586  0.26054  0.50791  1.0000
  N   N5        1.0  0.29423  0.25437  0.64767  1.0000
  N   N6        1.0  0.27756  0.77287  0.65516  1.0000
  C   C9        1.0  0.23151  0.25084  0.60042  1.0000
  C   C10       1.0  0.23416  0.73356  0.58078  1.0000
  C   C11       1.0  0.00865  0.54315  0.75242  1.0000
  C   C12       1.0  0.00809  0.45739  0.75105  1.0000
  C   C13       1.0  0.78217  0.73785  0.91314  1.0000
  C   C14       1.0  0.78105  0.25127  0.88593  1.0000
  N   N7        1.0  0.73861  0.77285  0.83534  1.0000
  N   N8        1.0  0.72208  0.25001  0.82442  1.0000
  C   C15       1.0  0.50783  0.04443  0.99411  1.0000
  C   C16       1.0  0.50932  0.95851  0.99346  1.0000
  H   H5        1.0  0.23814  0.25993  0.98451  1.0000
  H   H6        1.0  0.21190  0.79955  0.03021  1.0000
  H   H7        1.0  0.77478  0.73817  0.01213  1.0000
  H   H8        1.0  0.79229  0.20896  0.96398  1.0000
  C   C17       1.0  0.41169  0.91397  0.67974  1.0000
  C   C18       1.0  0.44751  0.90739  0.57352  1.0000
  C  Sn1       1.0  0.42489  0.85219  0.47982  1.0000
  C  Sn2       1.0  0.36526  0.80276  0.49294  1.0000
  C   C19       1.0  0.32976  0.80984  0.59952  1.0000
  C   C20       1.0  0.35286  0.86526  0.69274  1.0000
  H   H9        1.0  0.42954  0.95688  0.75184  1.0000
  O  Te1       1.0  0.46130  0.84638  0.37432  1.0000
  O  Te2       1.0  0.34151  0.74711  0.40069  1.0000
  H   H10       1.0  0.32509  0.87038  0.77493  1.0000
  Mg  Mg1       1.0  0.40867  0.76148  0.27413  1.0000
  C   C21       1.0  0.33417  0.10348  0.52763  1.0000
  C   C22       1.0  0.33828  0.17605  0.59951  1.0000
  C  Sn3       1.0  0.40228  0.21198  0.63338  1.0000
  C  Sn4       1.0  0.46319  0.17443  0.59440  1.0000
  C   C23       1.0  0.45852  0.10186  0.52244  1.0000
  C   C24       1.0  0.39422  0.06641  0.48911  1.0000
  H   H11       1.0  0.28442  0.07607  0.50178  1.0000
  O  Te3       1.0  0.40546  0.28448  0.70526  1.0000
  O  Te4       1.0  0.52781  0.20905  0.62690  1.0000
  H   H12       1.0  0.39105  0.01025  0.43340  1.0000
  Mg  Mg2       1.0  0.50552  0.30818  0.72595  1.0000
  C   C25       1.0  0.33410  0.89708  0.02426  1.0000
  C   C26       1.0  0.33695  0.81860  0.08010  1.0000
  C  Sn5       1.0  0.40044  0.78321  0.11800  1.0000
  C  Sn6       1.0  0.46214  0.82738  0.09957  1.0000
  C   C27       1.0  0.45875  0.90588  0.04369  1.0000
  C   C28       1.0  0.39494  0.94069  0.00608  1.0000
  H   H13       1.0  0.32263  0.92732  0.99521  1.0000
  O  Te5       1.0  0.40235  0.70473  0.17361  1.0000
  O  Te6       1.0  0.52629  0.79348  0.13661  1.0000
  H   H14       1.0  0.43005  0.00475  0.96292  1.0000
  Mg  Mg3       1.0  0.50220  0.68466  0.20820  1.0000
  C   C29       1.0  0.41642  0.20398  0.98097  1.0000
  C   C30       1.0  0.34109  0.19110  0.08472  1.0000
  C  Sn7       1.0  0.36218  0.13321  0.17493  1.0000
  C  Sn8       1.0  0.42187  0.08413  0.16077  1.0000
  C   C31       1.0  0.45899  0.09424  0.05667  1.0000
  C   C32       1.0  0.47531  0.15561  0.96695  1.0000
  H   H15       1.0  0.39975  0.24895  0.91157  1.0000
  O  Te7       1.0  0.32418  0.12439  0.27800  1.0000
  O  Te8       1.0  0.44411  0.02583  0.24954  1.0000
  H   H16       1.0  0.50433  0.16307  0.88667  1.0000
  Mg  Mg4       1.0  0.37510  0.03661  0.37376  1.0000
  C   C33       1.0  0.08711  0.71103  0.09884  1.0000
  C   C34       1.0  0.15794  0.70404  0.12768  1.0000
  C  Sn9       1.0  0.18422  0.63616  0.19586  1.0000
  C  Sn10      1.0  0.13862  0.57422  0.23576  1.0000
  C   C35       1.0  0.06785  0.58176  0.20635  1.0000
  C   C36       1.0  0.04210  0.64995  0.13811  1.0000
  H   H17       1.0  0.06719  0.76377  0.04598  1.0000
  O  Te9       1.0  0.25512  0.63016  0.22391  1.0000
  O  Te10      1.0  0.16351  0.50571  0.30399  1.0000
  H   H18       1.0  0.98727  0.65532  0.11573  1.0000
  Mg  Mg5       1.0  0.26424  0.52522  0.31919  1.0000
  C   C37       1.0  0.09504  0.40386  0.05487  1.0000
  C   C38       1.0  0.06745  0.40776  0.16953  1.0000
  C  Sn11      1.0  0.09746  0.36230  0.26804  1.0000
  C  Sn12      1.0  0.15619  0.31206  0.25117  1.0000
  C   C39       1.0  0.18343  0.30862  0.13613  1.0000
  C   C40       1.0  0.15298  0.35435  0.03818  1.0000
  H   H19       1.0  0.10941  0.44255  0.97909  1.0000
  O  Te11      1.0  0.06921  0.36689  0.38196  1.0000
  O  Te12      1.0  0.18721  0.26601  0.34807  1.0000
  H   H20       1.0  0.21229  0.35463  0.94944  1.0000
  Mg  Mg6       1.0  0.12980  0.29266  0.48590  1.0000
  C   C41       1.0  0.89102  0.37812  0.45839  1.0000
  C   C42       1.0  0.84898  0.32133  0.39063  1.0000
  C  Sn13      1.0  0.86099  0.30371  0.26860  1.0000
  C  Sn14      1.0  0.91616  0.34377  0.21364  1.0000
  C   C43       1.0  0.95796  0.40044  0.28223  1.0000
  C   C44       1.0  0.94546  0.41763  0.40427  1.0000
  H   H21       1.0  0.88138  0.39139  0.55283  1.0000
  O  Te13      1.0  0.81848  0.24683  0.20221  1.0000
  O  Te14      1.0  0.92934  0.32729  0.09185  1.0000
  H   H22       1.0  0.97805  0.46157  0.45673  1.0000
  Mg  Mg7       1.0  0.85707  0.24501  0.03911  1.0000
  C   C45       1.0  0.85968  0.57240  0.25047  1.0000
  C   C46       1.0  0.93043  0.58545  0.27305  1.0000
  C  Sn15      1.0  0.95463  0.65238  0.34651  1.0000
  C  Sn16      1.0  0.90698  0.70715  0.39823  1.0000
  C   C47       1.0  0.83630  0.69353  0.37516  1.0000
  C   C48       1.0  0.81264  0.62638  0.30148  1.0000
  H   H23       1.0  0.84137  0.52042  0.19352  1.0000
  O  Te15      1.0  0.02549  0.66453  0.36810  1.0000
  O  Te16      1.0  0.92976  0.77452  0.47203  1.0000
  H   H24       1.0  0.75786  0.61626  0.28408  1.0000
  Mg  Mg8       1.0  0.03132  0.76513  0.47474  1.0000
  C   C49       1.0  0.59644  0.19797  0.33272  1.0000
  C   C50       1.0  0.66654  0.18903  0.36702  1.0000
  C  Sn17      1.0  0.68934  0.12362  0.44372  1.0000
  C  Sn18      1.0  0.64094  0.06619  0.48670  1.0000
  C   C51       1.0  0.57093  0.07564  0.45179  1.0000
  C   C52       1.0  0.54868  0.14133  0.37504  1.0000
  H   H25       1.0  0.57922  0.24876  0.27329  1.0000
  O  Te17      1.0  0.75956  0.11562  0.47713  1.0000
  O  Te18      1.0  0.66292  0.00023  0.56341  1.0000
  H   H26       1.0  0.49440  0.14821  0.34843  1.0000
  Mg  Mg9       1.0  0.76346  0.01553  0.58345  1.0000
  C   C53       1.0  0.59443  0.89942  0.30235  1.0000
  C   C54       1.0  0.56602  0.90389  0.41625  1.0000
  C  Sn19      1.0  0.59199  0.85396  0.51319  1.0000
  C  Sn20      1.0  0.64745  0.79860  0.49551  1.0000
  C   C55       1.0  0.67555  0.79463  0.38123  1.0000
  C   C56       1.0  0.64915  0.84486  0.28484  1.0000
  H   H27       1.0  0.57403  0.93831  0.22779  1.0000
  O  Te19      1.0  0.56298  0.85919  0.62638  1.0000
  O  Te20      1.0  0.67441  0.74801  0.59084  1.0000
  H   H28       1.0  0.67119  0.84142  0.19669  1.0000
  Mg  Mg10      1.0  0.61751  0.77757  0.72817  1.0000
  C   C57       1.0  0.59206  0.09996  0.79822  1.0000
  C   C58       1.0  0.57111  0.08843  0.91676  1.0000
  C  Sn21      1.0  0.56014  0.13551  0.01324  1.0000
  C  Sn22      1.0  0.64682  0.20184  0.99033  1.0000
  C   C59       1.0  0.66742  0.21292  0.87139  1.0000
  C   C60       1.0  0.64017  0.16215  0.77552  1.0000
  H   H29       1.0  0.57095  0.06072  0.72402  1.0000
  O  Te21      1.0  0.53866  0.12313  0.13114  1.0000
  O  Te22      1.0  0.63664  0.24980  0.08506  1.0000
  H   H30       1.0  0.65637  0.17114  0.68373  1.0000
  Mg  Mg11      1.0  0.59124  0.20873  0.23003  1.0000
  C   C61       1.0  0.68750  0.90673  0.97285  1.0000
  C   C62       1.0  0.68781  0.83240  0.90512  1.0000
  C  Sn23      1.0  0.62605  0.79816  0.85490  1.0000
  C  Sn24      1.0  0.56289  0.83925  0.87295  1.0000
  C   C63       1.0  0.56314  0.91362  0.94078  1.0000
  C   C64       1.0  0.62523  0.94732  0.99066  1.0000
  H   H31       1.0  0.69764  0.92956  0.01139  1.0000
  O  Te23      1.0  0.62728  0.72383  0.78752  1.0000
  O  Te24      1.0  0.50043  0.80642  0.82375  1.0000
  H   H32       1.0  0.58648  0.00162  0.04303  1.0000
  Mg  Mg12      1.0  0.52874  0.70367  0.73880  1.0000
  C   C65       1.0  0.12476  0.61752  0.53742  1.0000
  C   C66       1.0  0.16359  0.67990  0.59977  1.0000
  C  Sn25      1.0  0.15450  0.69657  0.72322  1.0000
  C  Sn26      1.0  0.10560  0.64980  0.78515  1.0000
  C   C67       1.0  0.06704  0.58749  0.72198  1.0000
  C   C68       1.0  0.07653  0.57135  0.59845  1.0000
  H   H33       1.0  0.13213  0.60499  0.44186  1.0000
  O  Te25      1.0  0.19371  0.75912  0.78412  1.0000
  O  Te26      1.0  0.09549  0.66515  0.90853  1.0000
  H   H34       1.0  0.04649  0.52302  0.55022  1.0000
  Mg  Mg13      1.0  0.16127  0.75682  0.95199  1.0000
  C   C69       1.0  0.18464  0.39807  0.72491  1.0000
  C   C70       1.0  0.18183  0.32125  0.66325  1.0000
  C  Sn27      1.0  0.11855  0.28825  0.61816  1.0000
  C  Sn28      1.0  0.05702  0.33315  0.63524  1.0000
  C   C71       1.0  0.06039  0.40998  0.69698  1.0000
  C   C72       1.0  0.12399  0.44240  0.74175  1.0000
  H   H35       1.0  0.23385  0.42318  0.75950  1.0000
  O  Te27      1.0  0.11666  0.21141  0.55681  1.0000
  O  Te28      1.0  0.99308  0.30163  0.59108  1.0000
  H   H36       1.0  0.12615  0.50191  0.78942  1.0000
  Mg  Mg14      1.0  0.01713  0.19438  0.51346  1.0000
  C   C73       1.0  0.86084  0.42318  0.74634  1.0000
  C   C74       1.0  0.93070  0.41799  0.78460  1.0000
  C  Sn29      1.0  0.95515  0.35122  0.85710  1.0000
  C  Sn30      1.0  0.90868  0.28857  0.89177  1.0000
  C   C75       1.0  0.83890  0.29429  0.85295  1.0000
  C   C76       1.0  0.81498  0.36139  0.78046  1.0000
  H   H37       1.0  0.84234  0.47506  0.69019  1.0000
  O  Te29      1.0  0.02510  0.34702  0.89456  1.0000
  O  Te30      1.0  0.93174  0.22114  0.96415  1.0000
  H   H38       1.0  0.76090  0.36535  0.75079  1.0000
  Mg  Mg15      1.0  0.03175  0.24302  0.99236  1.0000
  C   C77       1.0  0.88797  0.61756  0.96102  1.0000
  C   C78       1.0  0.85380  0.68374  0.90013  1.0000
  C  Sn31      1.0  0.86815  0.70356  0.78014  1.0000
  C  Sn32      1.0  0.91763  0.65611  0.72021  1.0000
  C   C79       1.0  0.95151  0.58998  0.78189  1.0000
  C   C80       1.0  0.93677  0.57070  0.90197  1.0000
  H   H39       1.0  0.83866  0.59933  0.05391  1.0000
  O  Te31      1.0  0.83355  0.76990  0.72066  1.0000
  O  Te32      1.0  0.93294  0.67454  0.60029  1.0000
  H   H40       1.0  0.96321  0.51942  0.94906  1.0000
  Mg  Mg16      1.0  0.87220  0.77085  0.55761  1.0000
