data_image0
_chemical_formula_structural       N2C10H5C20N2C2H15N2C16H7C14N2C2H13C2Sn2C2HTe2HMgC2Sn2C2HTe2HMgC2Sn2C2HTe2HMgC2Sn2C2HTe2HMgC2Sn2C2HTe2HMgC2Sn2C2HTe2HMgC2Sn2C2HTe2HMgC2Sn2C2HTe2HMg
_chemical_formula_sum              "N8 C96 H56 Sn16 Te16 Mg8"
_cell_length_a       19.4564
_cell_length_b       15.9889
_cell_length_c       10.931
_cell_angle_alpha    90.2718
_cell_angle_beta     93.8675
_cell_angle_gamma    90.0419

_symmetry_space_group_name_H-M    'P1'
_space_group_IT_number       1

loop_
  _space_group_symop_operation_xyz
  'x, y, z'

loop_
  _atom_site_type_symbol
  _atom_site_label
  _atom_site_symmetry_multiplicity
  _atom_site_fract_x
  _atom_site_fract_y
  _atom_site_fract_z
  _atom_site_occupancy
  N   N1        1.0  0.27996  0.22855  0.16053  1.0000
  N   N2        1.0  0.29267  0.74508  0.13917  1.0000
  C   C1        1.0  0.06579  0.59344  0.20720  1.0000
  C   C2        1.0  0.05236  0.66656  0.13818  1.0000
  C   C3        1.0  0.10597  0.71598  0.10111  1.0000
  C   C4        1.0  0.13537  0.57249  0.23792  1.0000
  C   C5        1.0  0.17513  0.69574  0.13414  1.0000
  C   C6        1.0  0.18897  0.62261  0.20302  1.0000
  C   C7        1.0  0.23497  0.26336  0.08461  1.0000
  C   C8        1.0  0.22919  0.75137  0.09688  1.0000
  C   C9        1.0  0.00722  0.54279  0.24685  1.0000
  C   C10       1.0  0.00780  0.45706  0.24688  1.0000
  H   H1        1.0  0.99939  0.68423  0.11253  1.0000
  H   H2        1.0  0.15055  0.63108  0.44875  1.0000
  H   H3        1.0  0.09720  0.23117  0.54436  1.0000
  H   H4        1.0  0.14715  0.51637  0.29102  1.0000
  H   H5        1.0  0.24235  0.60635  0.22833  1.0000
  C   C11       1.0  0.86292  0.29988  0.24804  1.0000
  C   C12       1.0  0.91832  0.34654  0.21250  1.0000
  C   C13       1.0  0.93021  0.41277  0.41251  1.0000
  C   C14       1.0  0.87683  0.36288  0.45002  1.0000
  C   C15       1.0  0.84130  0.30756  0.36788  1.0000
  C   C16       1.0  0.77954  0.74369  0.39228  1.0000
  C   C17       1.0  0.78218  0.26107  0.40855  1.0000
  C   C18       1.0  0.95146  0.40564  0.29271  1.0000
  C   C19       1.0  0.56976  0.08704  0.45206  1.0000
  C   C20       1.0  0.56315  0.90238  0.44824  1.0000
  C   C21       1.0  0.55988  0.15712  0.37513  1.0000
  C   C22       1.0  0.58296  0.90561  0.32702  1.0000
  C   C23       1.0  0.61543  0.20209  0.33577  1.0000
  C   C24       1.0  0.63374  0.85220  0.28812  1.0000
  C   C25       1.0  0.59678  0.15497  0.02518  1.0000
  C   C26       1.0  0.63786  0.93372  0.99341  1.0000
  C   C27       1.0  0.66923  0.79803  0.37138  1.0000
  C   C28       1.0  0.68329  0.17998  0.37522  1.0000
  C   C29       1.0  0.65016  0.79511  0.49325  1.0000
  C   C30       1.0  0.69379  0.11059  0.45295  1.0000
  N   N3        1.0  0.72121  0.74671  0.32884  1.0000
  N   N4        1.0  0.73808  0.22568  0.33158  1.0000
  C   C31       1.0  0.50902  0.04082  0.49256  1.0000
  C   C32       1.0  0.50737  0.95499  0.49431  1.0000
  H   H6        1.0  0.50766  0.17580  0.34542  1.0000
  H   H7        1.0  0.55777  0.94951  0.26272  1.0000
  H   H8        1.0  0.60716  0.25601  0.27628  1.0000
  H   H9        1.0  0.64786  0.85309  0.19358  1.0000
  H   H10       1.0  0.58120  0.16011  0.11848  1.0000
  H   H11       1.0  0.64669  0.98729  0.05403  1.0000
  H   H12       1.0  0.74604  0.90485  0.98995  1.0000
  H   H13       1.0  0.67714  0.24745  0.05270  1.0000
  H   H14       1.0  0.83528  0.25702  0.18452  1.0000
  H   H15       1.0  0.93540  0.33983  0.12021  1.0000
  H   H16       1.0  0.95554  0.45746  0.47609  1.0000
  H   H17       1.0  0.21525  0.20574  0.52778  1.0000
  H   H18       1.0  0.23845  0.73169  0.48091  1.0000
  H   H19       1.0  0.79032  0.78439  0.47283  1.0000
  H   H20       1.0  0.77586  0.26054  0.50791  1.0000
  N   N5        1.0  0.29423  0.25437  0.64767  1.0000
  N   N6        1.0  0.27756  0.77287  0.65516  1.0000
  C   C33       1.0  0.06545  0.59300  0.70529  1.0000
  C   C34       1.0  0.06700  0.40746  0.71085  1.0000
  C   C35       1.0  0.08344  0.58701  0.58342  1.0000
  C   C36       1.0  0.05419  0.33528  0.63842  1.0000
  C   C37       1.0  0.13730  0.63504  0.54372  1.0000
  C   C38       1.0  0.10817  0.28629  0.60138  1.0000
  C   C39       1.0  0.10248  0.64857  0.78585  1.0000
  C   C40       1.0  0.13629  0.42797  0.74527  1.0000
  C   C41       1.0  0.17704  0.30587  0.63847  1.0000
  C   C42       1.0  0.17601  0.68786  0.62523  1.0000
  C   C43       1.0  0.19019  0.37788  0.71116  1.0000
  C   C44       1.0  0.15787  0.69392  0.74760  1.0000
  C   C45       1.0  0.23151  0.25084  0.60042  1.0000
  C   C46       1.0  0.23416  0.73356  0.58078  1.0000
  C   C47       1.0  0.00865  0.54315  0.75242  1.0000
  C   C48       1.0  0.00809  0.45739  0.75105  1.0000
  H   H21       1.0  0.05493  0.54506  0.51982  1.0000
  H   H22       1.0  0.00134  0.31804  0.61039  1.0000
  H   H23       1.0  0.09453  0.77178  0.04666  1.0000
  H   H24       1.0  0.08824  0.65366  0.88020  1.0000
  H   H25       1.0  0.14762  0.48330  0.80123  1.0000
  H   H26       1.0  0.24332  0.39338  0.73999  1.0000
  H   H27       1.0  0.18825  0.73461  0.81043  1.0000
  C   C49       1.0  0.78217  0.73785  0.91314  1.0000
  C   C50       1.0  0.78105  0.25127  0.88593  1.0000
  C   C51       1.0  0.56336  0.09625  0.94578  1.0000
  C   C52       1.0  0.56994  0.91165  0.95396  1.0000
  C   C53       1.0  0.58316  0.09111  0.82458  1.0000
  C   C54       1.0  0.56019  0.84152  0.87609  1.0000
  C   C55       1.0  0.63409  0.14383  0.78454  1.0000
  C   C56       1.0  0.61584  0.79660  0.83687  1.0000
  C   C57       1.0  0.63783  0.06470  0.48961  1.0000
  C   C58       1.0  0.59645  0.84503  0.52920  1.0000
  C   C59       1.0  0.68351  0.81835  0.87838  1.0000
  C   C60       1.0  0.66979  0.19918  0.86673  1.0000
  C   C61       1.0  0.69384  0.88741  0.95776  1.0000
  C   C62       1.0  0.65063  0.20415  0.98842  1.0000
  N   N7        1.0  0.73861  0.77285  0.83534  1.0000
  N   N8        1.0  0.72208  0.25001  0.82442  1.0000
  C   C63       1.0  0.50783  0.04443  0.99411  1.0000
  C   C64       1.0  0.50932  0.95851  0.99346  1.0000
  H   H28       1.0  0.55796  0.04621  0.76113  1.0000
  H   H29       1.0  0.50809  0.82303  0.84482  1.0000
  H   H30       1.0  0.64813  0.14140  0.68997  1.0000
  H   H31       1.0  0.60774  0.74306  0.77580  1.0000
  H   H32       1.0  0.64691  0.01132  0.54980  1.0000
  H   H33       1.0  0.58099  0.84159  0.62279  1.0000
  H   H34       1.0  0.67662  0.75264  0.55822  1.0000
  H   H35       1.0  0.74606  0.09267  0.48355  1.0000
  H   H36       1.0  0.86137  0.36768  0.54356  1.0000
  H   H37       1.0  0.23814  0.25993  0.98451  1.0000
  H   H38       1.0  0.21190  0.79955  0.03021  1.0000
  H   H39       1.0  0.77478  0.73817  0.01213  1.0000
  H   H40       1.0  0.79229  0.20896  0.96398  1.0000
  C   C65       1.0  0.41642  0.20398  0.98097  1.0000
  C   C66       1.0  0.34109  0.19110  0.08472  1.0000
  C  Sn1       1.0  0.36218  0.13321  0.17493  1.0000
  C  Sn2       1.0  0.42187  0.08413  0.16077  1.0000
  C   C67       1.0  0.45899  0.09424  0.05667  1.0000
  C   C68       1.0  0.47531  0.15561  0.96695  1.0000
  H   H41       1.0  0.39975  0.24895  0.91157  1.0000
  O  Te1       1.0  0.32418  0.12439  0.27800  1.0000
  O  Te2       1.0  0.44411  0.02583  0.24954  1.0000
  H   H42       1.0  0.50433  0.16307  0.88667  1.0000
  Mg  Mg1       1.0  0.37510  0.03661  0.37376  1.0000
  C   C69       1.0  0.92007  0.59404  0.94351  1.0000
  C   C70       1.0  0.94515  0.58701  0.82709  1.0000
  C  Sn3       1.0  0.91979  0.63895  0.73205  1.0000
  C  Sn4       1.0  0.86838  0.69900  0.75428  1.0000
  C   C71       1.0  0.84366  0.70557  0.87110  1.0000
  C   C72       1.0  0.86938  0.65326  0.96553  1.0000
  H   H43       1.0  0.90210  0.55032  0.01660  1.0000
  O  Te3       1.0  0.94540  0.63108  0.61627  1.0000
  O  Te4       1.0  0.84215  0.75172  0.66096  1.0000
  H   H44       1.0  0.81209  0.65548  0.05568  1.0000
  Mg  Mg2       1.0  0.89340  0.71711  0.51870  1.0000
  C   C73       1.0  0.45939  0.81284  0.11367  1.0000
  C   C74       1.0  0.45668  0.88498  0.04182  1.0000
  C  Sn5       1.0  0.39320  0.91963  0.00208  1.0000
  C  Sn6       1.0  0.33138  0.88123  0.03506  1.0000
  C   C75       1.0  0.33465  0.80912  0.10704  1.0000
  C   C76       1.0  0.39844  0.77495  0.14628  1.0000
  H   H45       1.0  0.50875  0.78642  0.14409  1.0000
  O  Te5       1.0  0.42932  0.99499  0.93032  1.0000
  O  Te6       1.0  0.30514  0.91785  0.99663  1.0000
  H   H46       1.0  0.40052  0.71912  0.20197  1.0000
  Mg  Mg3       1.0  0.32883  0.01686  0.90026  1.0000
  C   C77       1.0  0.11595  0.33778  0.29255  1.0000
  C   C78       1.0  0.07387  0.39402  0.22481  1.0000
  C  Sn7       1.0  0.08253  0.40614  0.10029  1.0000
  C  Sn8       1.0  0.13431  0.36103  0.04277  1.0000
  C   C79       1.0  0.17612  0.30486  0.11132  1.0000
  C   C80       1.0  0.16702  0.29323  0.23587  1.0000
  H   H47       1.0  0.10890  0.32873  0.38890  1.0000
  O  Te7       1.0  0.04005  0.46260  0.03398  1.0000
  O  Te8       1.0  0.18196  0.37520  0.91844  1.0000
  H   H48       1.0  0.19959  0.24964  0.28828  1.0000
  Mg  Mg4       1.0  0.11120  0.45917  0.86690  1.0000
  C   C81       1.0  0.83003  0.60093  0.26389  1.0000
  C   C82       1.0  0.83076  0.67006  0.34267  1.0000
  C  Sn9       1.0  0.89325  0.70277  0.39213  1.0000
  C  Sn10      1.0  0.95609  0.66547  0.36196  1.0000
  C   C83       1.0  0.95481  0.59637  0.28299  1.0000
  C   C84       1.0  0.89199  0.56411  0.23404  1.0000
  H   H49       1.0  0.78142  0.57599  0.22596  1.0000
  O  Te9       1.0  0.89304  0.77185  0.47073  1.0000
  O  Te10      1.0  0.01928  0.69693  0.41006  1.0000
  H   H50       1.0  0.89144  0.51062  0.17298  1.0000
  Mg  Mg5       1.0  0.99228  0.79202  0.51307  1.0000
  C   C85       1.0  0.46056  0.19047  0.60562  1.0000
  C   C86       1.0  0.45688  0.11066  0.55290  1.0000
  C  Sn11      1.0  0.39295  0.07383  0.52142  1.0000
  C  Sn12      1.0  0.33165  0.11788  0.54319  1.0000
  C   C87       1.0  0.33588  0.19772  0.59590  1.0000
  C   C88       1.0  0.40012  0.23398  0.62708  1.0000
  H   H51       1.0  0.51027  0.21855  0.62969  1.0000
  O  Te11      1.0  0.39080  0.99403  0.46887  1.0000
  O  Te12      1.0  0.26707  0.08255  0.51257  1.0000
  H   H52       1.0  0.40296  0.29579  0.66783  1.0000
  Mg  Mg6       1.0  0.29063  0.97227  0.44306  1.0000
  C   C89       1.0  0.41169  0.91397  0.67974  1.0000
  C   C90       1.0  0.44751  0.90739  0.57352  1.0000
  C  Sn13      1.0  0.42489  0.85219  0.47982  1.0000
  C  Sn14      1.0  0.36526  0.80276  0.49294  1.0000
  C   C91       1.0  0.32976  0.80984  0.59952  1.0000
  C   C92       1.0  0.35286  0.86526  0.69274  1.0000
  H   H53       1.0  0.42954  0.95688  0.75184  1.0000
  O  Te13      1.0  0.46130  0.84638  0.37432  1.0000
  O  Te14      1.0  0.34151  0.74711  0.40069  1.0000
  H   H54       1.0  0.32509  0.87038  0.77493  1.0000
  Mg  Mg7       1.0  0.40867  0.76148  0.27413  1.0000
  C   C93       1.0  0.95395  0.31825  0.87947  1.0000
  C   C94       1.0  0.95305  0.38642  0.79984  1.0000
  C  Sn15      1.0  0.89047  0.41836  0.75020  1.0000
  C  Sn16      1.0  0.82771  0.38124  0.78105  1.0000
  C   C95       1.0  0.82916  0.31310  0.86086  1.0000
  C   C96       1.0  0.89207  0.28163  0.90998  1.0000
  H   H55       1.0  0.00262  0.29392  0.91753  1.0000
  O  Te15      1.0  0.89050  0.48649  0.67076  1.0000
  O  Te16      1.0  0.76444  0.41193  0.73279  1.0000
  H   H56       1.0  0.89275  0.22888  0.97169  1.0000
  Mg  Mg8       1.0  0.79121  0.50585  0.62852  1.0000
