data_image0
_chemical_formula_structural       N8C112N8H88C4N8C64N8H56C4SnCSn2CSnTe4Mg2SnCSn2CSnTe4Mg2SnCSn2CSnTe4Mg2SnCSn2CSnTe4Mg2SnCSn2CSnTe4Mg2SnCSn2CSnTe4Mg2SnCSn2CSnTe4Mg2SnCSn2CSnTe4Mg2SnCSn2CSnTe4Mg2SnCSn2CSnTe4Mg2SnCSn2CSnTe4Mg2SnCSn2CSnTe4Mg2SnCSn2CSnTe4Mg2SnCSn2CSnTe4Mg2SnCSn2CSnTe4Mg2SnCSn2CSnTe4Mg2SnCSn2CSnTe4Mg2SnCSn2CSnTe4Mg2SnCSn2CSnTe4Mg2SnCSn2CSnTe4Mg2SnCSn2CSnTe4Mg2SnCSn2CSnTe4Mg2SnCSn2CSnTe4Mg2SnCSn2CSnTe4Mg2
_chemical_formula_sum              "N32 C232 H144 Sn96 Te96 Mg48"
_cell_length_a       30.1121
_cell_length_b       42.2755
_cell_length_c       10.6526
_cell_angle_alpha    90.7073
_cell_angle_beta     102.434
_cell_angle_gamma    89.9932

_symmetry_space_group_name_H-M    'P1'
_space_group_IT_number       1

loop_
  _space_group_symop_operation_xyz
  'x, y, z'

loop_
  _atom_site_type_symbol
  _atom_site_label
  _atom_site_symmetry_multiplicity
  _atom_site_fract_x
  _atom_site_fract_y
  _atom_site_fract_z
  _atom_site_occupancy
  N   N1        1.0  0.35458  0.10393  0.22443  1.0000
  N   N2        1.0  0.64434  0.10568  0.26682  1.0000
  N   N3        1.0  0.85810  0.60716  0.23594  1.0000
  N   N4        1.0  0.15051  0.60119  0.25558  1.0000
  N   N5        1.0  0.65052  0.89834  0.27729  1.0000
  N   N6        1.0  0.35623  0.89491  0.23156  1.0000
  N   N7        1.0  0.14584  0.39536  0.27441  1.0000
  N   N8        1.0  0.85367  0.39784  0.23139  1.0000
  C   C1        1.0  0.35077  0.12899  0.15432  1.0000
  C   C2        1.0  0.64850  0.13046  0.34066  1.0000
  C   C3        1.0  0.84726  0.62900  0.15089  1.0000
  C   C4        1.0  0.15344  0.62581  0.33021  1.0000
  C   C5        1.0  0.66039  0.87586  0.36004  1.0000
  C   C6        1.0  0.34590  0.87239  0.14681  1.0000
  C   C7        1.0  0.15412  0.37236  0.35513  1.0000
  C   C8        1.0  0.84988  0.37329  0.15600  1.0000
  C   C9        1.0  0.31869  0.15399  0.16771  1.0000
  C   C10       1.0  0.68018  0.15592  0.32901  1.0000
  C   C11       1.0  0.81838  0.65539  0.17141  1.0000
  C   C12       1.0  0.68935  0.84953  0.33927  1.0000
  C   C13       1.0  0.31689  0.84613  0.16787  1.0000
  C   C14       1.0  0.18380  0.34625  0.33591  1.0000
  C   C15       1.0  0.13547  0.20918  0.36823  1.0000
  C   C16       1.0  0.86599  0.21143  0.13877  1.0000
  C   C17       1.0  0.36720  0.71053  0.13970  1.0000
  C   C18       1.0  0.36551  0.29082  0.13791  1.0000
  C   C19       1.0  0.63453  0.29291  0.36112  1.0000
  C   C20       1.0  0.18056  0.21342  0.35930  1.0000
  C   C21       1.0  0.82056  0.21538  0.14501  1.0000
  C   C22       1.0  0.32183  0.71484  0.14603  1.0000
  C   C23       1.0  0.32017  0.28738  0.14546  1.0000
  C   C24       1.0  0.68002  0.28943  0.35448  1.0000
  C   C25       1.0  0.19188  0.23049  0.25808  1.0000
  C   C26       1.0  0.80837  0.23157  0.24873  1.0000
  C   C27       1.0  0.30979  0.73056  0.25090  1.0000
  C   C28       1.0  0.30752  0.26894  0.24110  1.0000
  C   C29       1.0  0.69273  0.27148  0.25585  1.0000
  C   C30       1.0  0.15599  0.24386  0.16807  1.0000
  C   C31       1.0  0.84369  0.24380  0.34523  1.0000
  C   C32       1.0  0.34526  0.74235  0.34792  1.0000
  C   C33       1.0  0.34260  0.25394  0.32851  1.0000
  C   C34       1.0  0.65770  0.25710  0.16448  1.0000
  C   C35       1.0  0.11078  0.23994  0.17662  1.0000
  C   C36       1.0  0.88924  0.23988  0.34014  1.0000
  C   C37       1.0  0.39077  0.73834  0.34220  1.0000
  C   C38       1.0  0.38803  0.25695  0.32101  1.0000
  C   C39       1.0  0.61216  0.26038  0.17042  1.0000
  C   C40       1.0  0.96153  0.53863  0.23454  1.0000
  C   C41       1.0  0.04452  0.53552  0.25336  1.0000
  C   C42       1.0  0.54318  0.96368  0.27680  1.0000
  C   C43       1.0  0.45922  0.96433  0.24511  1.0000
  C   C44       1.0  0.95731  0.46626  0.24400  1.0000
  C   C45       1.0  0.92203  0.53219  0.28166  1.0000
  C   C46       1.0  0.05876  0.54355  0.14043  1.0000
  C   C47       1.0  0.58344  0.97223  0.23747  1.0000
  C   C48       1.0  0.42986  0.96426  0.33082  1.0000
  C   C49       1.0  0.94048  0.45843  0.35291  1.0000
  C   C50       1.0  0.88813  0.55461  0.27880  1.0000
  C   C51       1.0  0.09528  0.56400  0.14451  1.0000
  C   C52       1.0  0.61893  0.95093  0.24158  1.0000
  C   C53       1.0  0.39485  0.94209  0.31896  1.0000
  C   C54       1.0  0.90469  0.43708  0.34383  1.0000
  C   C55       1.0  0.89102  0.58466  0.22555  1.0000
  C   C56       1.0  0.11757  0.57805  0.26167  1.0000
  C   C57       1.0  0.61635  0.91998  0.28698  1.0000
  C   C58       1.0  0.38822  0.91849  0.22268  1.0000
  C   C59       1.0  0.88600  0.42150  0.22672  1.0000
  C   C60       1.0  0.92959  0.59128  0.17554  1.0000
  C   C61       1.0  0.10504  0.56878  0.37586  1.0000
  C   C62       1.0  0.57685  0.91136  0.32929  1.0000
  C   C63       1.0  0.41673  0.91904  0.13359  1.0000
  C   C64       1.0  0.90133  0.43036  0.11613  1.0000
  C   C65       1.0  0.96384  0.56901  0.18145  1.0000
  C   C66       1.0  0.06883  0.54785  0.37108  1.0000
  C   C67       1.0  0.54148  0.93271  0.32448  1.0000
  C   C68       1.0  0.45120  0.94141  0.14526  1.0000
  C   C69       1.0  0.93638  0.45245  0.12544  1.0000
  C   C70       1.0  0.09988  0.22216  0.27634  1.0000
  C   C71       1.0  0.90102  0.22345  0.23673  1.0000
  C   C72       1.0  0.40237  0.72219  0.23793  1.0000
  C   C73       1.0  0.40021  0.27554  0.22517  1.0000
  C   C74       1.0  0.59987  0.27836  0.26924  1.0000
  C   C75       1.0  0.29063  0.15216  0.25746  1.0000
  C   C76       1.0  0.71116  0.15324  0.24750  1.0000
  C   C77       1.0  0.80139  0.65798  0.28423  1.0000
  C   C78       1.0  0.71192  0.84957  0.23658  1.0000
  C   C79       1.0  0.29450  0.84658  0.27109  1.0000
  C   C80       1.0  0.20665  0.34640  0.23378  1.0000
  C   C81       1.0  0.26388  0.17766  0.27782  1.0000
  C   C82       1.0  0.73825  0.17873  0.23004  1.0000
  C   C83       1.0  0.77624  0.68419  0.30570  1.0000
  C   C84       1.0  0.73638  0.82336  0.21105  1.0000
  C   C85       1.0  0.26964  0.82060  0.29556  1.0000
  C   C86       1.0  0.23181  0.32043  0.20955  1.0000
  C   C87       1.0  0.26431  0.20631  0.21141  1.0000
  C   C88       1.0  0.73484  0.20840  0.28995  1.0000
  C   C89       1.0  0.76719  0.70890  0.21644  1.0000
  C   C90       1.0  0.73809  0.79559  0.28377  1.0000
  C   C91       1.0  0.26696  0.79261  0.22088  1.0000
  C   C92       1.0  0.23466  0.29290  0.28419  1.0000
  C   C93       1.0  0.28990  0.20708  0.11512  1.0000
  C   C94       1.0  0.70602  0.21015  0.37817  1.0000
  C   C95       1.0  0.78376  0.70608  0.10308  1.0000
  C   C96       1.0  0.71643  0.79596  0.38861  1.0000
  C   C97       1.0  0.28811  0.79265  0.11505  1.0000
  C   C98       1.0  0.21328  0.29337  0.38960  1.0000
  C   C99       1.0  0.31678  0.18162  0.09439  1.0000
  C   C100      1.0  0.67911  0.18461  0.39664  1.0000
  C   C101      1.0  0.80887  0.67971  0.08077  1.0000
  C   C102      1.0  0.69282  0.82252  0.41670  1.0000
  C   C103      1.0  0.31233  0.81893  0.08844  1.0000
  C   C104      1.0  0.18839  0.31955  0.41528  1.0000
  C   C105      1.0  0.25934  0.26432  0.25255  1.0000
  C   C106      1.0  0.74107  0.26624  0.24630  1.0000
  C   C107      1.0  0.76192  0.76670  0.25196  1.0000
  C   C108      1.0  0.24190  0.76423  0.25138  1.0000
  C   C109      1.0  0.74166  0.73759  0.24271  1.0000
  C   C110      1.0  0.26144  0.73483  0.26249  1.0000
  C   C111      1.0  0.23974  0.23489  0.24325  1.0000
  C   C112      1.0  0.76011  0.23661  0.25939  1.0000
  N   N9        1.0  0.05313  0.78167  0.25845  1.0000
  N   N10       1.0  0.94716  0.77619  0.19795  1.0000
  N   N11       1.0  0.55407  0.28051  0.27957  1.0000
  N   N12       1.0  0.44552  0.27764  0.21172  1.0000
  N   N13       1.0  0.94670  0.22012  0.22752  1.0000
  N   N14       1.0  0.05443  0.21844  0.28839  1.0000
  N   N15       1.0  0.44815  0.71894  0.22817  1.0000
  N   N16       1.0  0.55478  0.72451  0.27618  1.0000
  H   H1        1.0  0.37254  0.13362  0.08576  1.0000
  H   H2        1.0  0.62707  0.13428  0.41119  1.0000
  H   H3        1.0  0.85975  0.62912  0.06106  1.0000
  H   H4        1.0  0.13040  0.62930  0.39663  1.0000
  H   H5        1.0  0.64647  0.87516  0.44749  1.0000
  H   H6        1.0  0.35921  0.87097  0.05839  1.0000
  H   H7        1.0  0.13880  0.37120  0.44000  1.0000
  H   H8        1.0  0.87144  0.36981  0.08565  1.0000
  H   H9        1.0  0.12784  0.19645  0.44925  1.0000
  H   H10       1.0  0.87428  0.19966  0.05533  1.0000
  H   H11       1.0  0.37529  0.69868  0.05619  1.0000
  H   H12       1.0  0.37389  0.30462  0.06060  1.0000
  H   H13       1.0  0.62614  0.30621  0.44096  1.0000
  H   H14       1.0  0.20716  0.20427  0.43596  1.0000
  H   H15       1.0  0.79447  0.20666  0.06482  1.0000
  H   H16       1.0  0.29553  0.70654  0.06556  1.0000
  H   H17       1.0  0.29441  0.29809  0.07087  1.0000
  H   H18       1.0  0.70577  0.29975  0.43164  1.0000
  H   H19       1.0  0.16370  0.25748  0.08944  1.0000
  H   H20       1.0  0.83551  0.25621  0.42735  1.0000
  H   H21       1.0  0.33715  0.75455  0.43052  1.0000
  H   H22       1.0  0.33397  0.23934  0.40318  1.0000
  H   H23       1.0  0.66627  0.24302  0.08694  1.0000
  H   H24       1.0  0.08376  0.25045  0.10473  1.0000
  H   H25       1.0  0.91567  0.24928  0.41794  1.0000
  H   H26       1.0  0.41739  0.74744  0.42018  1.0000
  H   H27       1.0  0.41420  0.24455  0.38923  1.0000
  H   H28       1.0  0.58596  0.24893  0.09761  1.0000
  H   H29       1.0  0.91829  0.50972  0.32599  1.0000
  H   H30       1.0  0.04083  0.53389  0.04817  1.0000
  H   H31       1.0  0.58676  0.99558  0.19959  1.0000
  H   H32       1.0  0.43572  0.98034  0.41275  1.0000
  H   H33       1.0  0.95600  0.46879  0.44625  1.0000
  H   H34       1.0  0.85904  0.54936  0.32057  1.0000
  H   H35       1.0  0.10583  0.57043  0.05674  1.0000
  H   H36       1.0  0.64913  0.95792  0.20796  1.0000
  H   H37       1.0  0.37330  0.94181  0.38864  1.0000
  H   H38       1.0  0.89190  0.43118  0.42865  1.0000
  H   H39       1.0  0.93361  0.61461  0.13723  1.0000
  H   H40       1.0  0.12341  0.57808  0.46831  1.0000
  H   H41       1.0  0.57324  0.88731  0.36111  1.0000
  H   H42       1.0  0.41308  0.90137  0.05708  1.0000
  H   H43       1.0  0.88619  0.41977  0.02305  1.0000
  H   H44       1.0  0.99363  0.57552  0.14552  1.0000
  H   H45       1.0  0.05890  0.54142  0.45983  1.0000
  H   H46       1.0  0.51124  0.92491  0.35567  1.0000
  H   H47       1.0  0.47402  0.94042  0.07896  1.0000
  H   H48       1.0  0.94861  0.45841  0.03966  1.0000
  H   H49       1.0  0.29142  0.13075  0.31357  1.0000
  H   H50       1.0  0.71275  0.13095  0.19647  1.0000
  H   H51       1.0  0.80919  0.63937  0.35518  1.0000
  H   H52       1.0  0.70903  0.87041  0.17653  1.0000
  H   H53       1.0  0.29765  0.86763  0.33220  1.0000
  H   H54       1.0  0.20347  0.36710  0.17287  1.0000
  H   H55       1.0  0.24364  0.17560  0.35013  1.0000
  H   H56       1.0  0.76151  0.17580  0.16582  1.0000
  H   H57       1.0  0.76542  0.68619  0.39622  1.0000
  H   H58       1.0  0.75280  0.82401  0.13000  1.0000
  H   H59       1.0  0.25356  0.82173  0.37730  1.0000
  H   H60       1.0  0.24792  0.32116  0.12792  1.0000
  H   H61       1.0  0.28908  0.22814  0.05723  1.0000
  H   H62       1.0  0.70448  0.23202  0.43154  1.0000
  H   H63       1.0  0.77751  0.72503  0.03328  1.0000
  H   H64       1.0  0.71776  0.77488  0.44678  1.0000
  H   H65       1.0  0.28561  0.77171  0.05363  1.0000
  H   H66       1.0  0.21598  0.27279  0.45100  1.0000
  H   H67       1.0  0.33684  0.18320  0.02099  1.0000
  H   H68       1.0  0.65656  0.18695  0.46357  1.0000
  H   H69       1.0  0.82146  0.67796  0.99256  1.0000
  H   H70       1.0  0.67635  0.82221  0.49819  1.0000
  H   H71       1.0  0.32813  0.81830  0.00562  1.0000
  H   H72       1.0  0.17194  0.31928  0.49682  1.0000
  H   H73       1.0  0.45466  0.69798  0.18784  1.0000
  H   H74       1.0  0.54655  0.70256  0.30190  1.0000
  H   H75       1.0  0.95322  0.19970  0.18363  1.0000
  H   H76       1.0  0.04815  0.19671  0.32080  1.0000
  H   H77       1.0  0.54604  0.30144  0.31702  1.0000
  H   H78       1.0  0.45302  0.29827  0.17278  1.0000
  H   H79       1.0  0.04558  0.80348  0.28941  1.0000
  H   H80       1.0  0.95429  0.79619  0.15403  1.0000
  H   H81       1.0  0.47078  0.72310  0.31255  1.0000
  H   H82       1.0  0.53108  0.73275  0.20087  1.0000
  H   H83       1.0  0.96984  0.22426  0.31087  1.0000
  H   H84       1.0  0.03117  0.22384  0.20712  1.0000
  H   H85       1.0  0.53146  0.27481  0.19677  1.0000
  H   H86       1.0  0.46921  0.27203  0.29165  1.0000
  H   H87       1.0  0.03212  0.77591  0.17290  1.0000
  H   H88       1.0  0.97202  0.77083  0.27561  1.0000
  C   C113      1.0  0.00063  0.48473  0.25447  1.0000
  C   C114      1.0  0.50174  0.98383  0.26238  1.0000
  C   C115      1.0  0.00146  0.51717  0.24719  1.0000
  C   C116      1.0  0.50148  0.01616  0.25781  1.0000
  N   N17       1.0  0.35201  0.10469  0.72367  1.0000
  N   N18       1.0  0.64511  0.10358  0.76976  1.0000
  N   N19       1.0  0.84838  0.60074  0.74389  1.0000
  N   N20       1.0  0.14283  0.60422  0.76653  1.0000
  N   N21       1.0  0.64594  0.89701  0.77222  1.0000
  N   N22       1.0  0.35310  0.89604  0.72710  1.0000
  N   N23       1.0  0.14567  0.39877  0.76176  1.0000
  N   N24       1.0  0.85051  0.39568  0.72768  1.0000
  C   C117      1.0  0.34600  0.12893  0.64878  1.0000
  C   C118      1.0  0.65420  0.12709  0.85020  1.0000
  C   C119      1.0  0.84812  0.62572  0.67489  1.0000
  C   C120      1.0  0.15188  0.62749  0.84811  1.0000
  C   C121      1.0  0.64997  0.87270  0.84610  1.0000
  C   C122      1.0  0.35140  0.86985  0.66203  1.0000
  C   C123      1.0  0.14964  0.37495  0.83846  1.0000
  C   C124      1.0  0.84107  0.37261  0.64527  1.0000
  C   C125      1.0  0.31606  0.15483  0.66834  1.0000
  C   C126      1.0  0.31918  0.84480  0.67204  1.0000
  C   C127      1.0  0.86392  0.21015  0.62817  1.0000
  C   C128      1.0  0.63417  0.28874  0.87372  1.0000
  C   C129      1.0  0.81869  0.21348  0.63709  1.0000
  C   C130      1.0  0.67928  0.28321  0.86716  1.0000
  C   C131      1.0  0.80670  0.23042  0.73926  1.0000
  C   C132      1.0  0.69046  0.26870  0.75865  1.0000
  C   C133      1.0  0.84227  0.24375  0.83225  1.0000
  C   C134      1.0  0.65434  0.25955  0.65788  1.0000
  C   C135      1.0  0.88765  0.24095  0.82324  1.0000
  C   C136      1.0  0.60911  0.26491  0.66369  1.0000
  C   C137      1.0  0.45602  0.03579  0.74001  1.0000
  C   C138      1.0  0.95348  0.53436  0.74763  1.0000
  C   C139      1.0  0.54155  0.96431  0.76768  1.0000
  C   C140      1.0  0.45881  0.96338  0.74290  1.0000
  C   C141      1.0  0.42386  0.03482  0.81760  1.0000
  C   C142      1.0  0.93848  0.54274  0.85954  1.0000
  C   C143      1.0  0.55429  0.95361  0.65485  1.0000
  C   C144      1.0  0.43305  0.96135  0.83763  1.0000
  C   C145      1.0  0.38866  0.05682  0.80435  1.0000
  C   C146      1.0  0.90186  0.56311  0.85450  1.0000
  C   C147      1.0  0.58982  0.93236  0.66015  1.0000
  C   C148      1.0  0.39716  0.94001  0.82617  1.0000
  C   C149      1.0  0.38462  0.08143  0.71525  1.0000
  C   C150      1.0  0.88096  0.57729  0.73793  1.0000
  C   C151      1.0  0.61274  0.91994  0.77835  1.0000
  C   C152      1.0  0.38693  0.91856  0.72230  1.0000
  C   C153      1.0  0.41572  0.08187  0.63323  1.0000
  C   C154      1.0  0.89457  0.56798  0.62455  1.0000
  C   C155      1.0  0.60112  0.93112  0.89215  1.0000
  C   C156      1.0  0.41230  0.92056  0.62580  1.0000
  C   C157      1.0  0.45022  0.05959  0.64567  1.0000
  C   C158      1.0  0.93032  0.54666  0.62996  1.0000
  C   C159      1.0  0.56599  0.95306  0.88612  1.0000
  C   C160      1.0  0.44757  0.94232  0.63715  1.0000
  C   C161      1.0  0.89914  0.22404  0.72043  1.0000
  C   C162      1.0  0.59832  0.27980  0.77192  1.0000
  C   C163      1.0  0.29002  0.15371  0.76330  1.0000
  C   C164      1.0  0.28790  0.84755  0.75263  1.0000
  C   C165      1.0  0.26452  0.17962  0.78682  1.0000
  C   C166      1.0  0.26085  0.82204  0.76978  1.0000
  C   C167      1.0  0.26504  0.20833  0.72062  1.0000
  C   C168      1.0  0.26465  0.79241  0.71027  1.0000
  C   C169      1.0  0.28920  0.20867  0.62092  1.0000
  C   C170      1.0  0.29364  0.79060  0.62264  1.0000
  C   C171      1.0  0.31415  0.18255  0.59545  1.0000
  C   C172      1.0  0.32049  0.81613  0.60443  1.0000
  C   C173      1.0  0.25927  0.26653  0.76517  1.0000
  C   C174      1.0  0.73851  0.26401  0.74454  1.0000
  C   C175      1.0  0.76014  0.76543  0.76210  1.0000
  C   C176      1.0  0.23945  0.76426  0.74041  1.0000
  C   C177      1.0  0.74102  0.73565  0.74463  1.0000
  C   C178      1.0  0.25804  0.73463  0.75063  1.0000
  C   C179      1.0  0.24030  0.23678  0.75389  1.0000
  C   C180      1.0  0.75853  0.23485  0.75189  1.0000
  N   N25       1.0  0.05490  0.78430  0.78625  1.0000
  N   N26       1.0  0.94526  0.77742  0.70923  1.0000
  N   N27       1.0  0.55274  0.28416  0.78133  1.0000
  N   N28       1.0  0.44327  0.27763  0.70109  1.0000
  N   N29       1.0  0.94424  0.22210  0.70467  1.0000
  N   N30       1.0  0.05330  0.21441  0.76978  1.0000
  N   N31       1.0  0.44416  0.71564  0.72053  1.0000
  N   N32       1.0  0.55339  0.71875  0.76677  1.0000
  H   H89       1.0  0.36398  0.13213  0.57014  1.0000
  H   H90       1.0  0.63943  0.12907  0.93597  1.0000
  H   H91       1.0  0.87290  0.62893  0.61372  1.0000
  H   H92       1.0  0.13680  0.62910  0.93339  1.0000
  H   H93       1.0  0.62772  0.86908  0.91425  1.0000
  H   H94       1.0  0.37545  0.86431  0.60045  1.0000
  H   H95       1.0  0.12762  0.37213  0.90780  1.0000
  H   H96       1.0  0.85588  0.37084  0.55955  1.0000
  H   H97       1.0  0.87195  0.19757  0.54615  1.0000
  H   H98       1.0  0.62673  0.29978  0.95966  1.0000
  H   H99       1.0  0.79253  0.20391  0.55920  1.0000
  H   H100      1.0  0.70598  0.28976  0.94972  1.0000
  H   H101      1.0  0.83419  0.25650  0.91375  1.0000
  H   H102      1.0  0.66175  0.24815  0.57267  1.0000
  H   H103      1.0  0.91421  0.25178  0.89692  1.0000
  H   H104      1.0  0.58208  0.25766  0.58312  1.0000
  H   H105      1.0  0.42724  0.01783  0.89416  1.0000
  H   H106      1.0  0.95603  0.53340  0.95180  1.0000
  H   H107      1.0  0.53672  0.96247  0.56184  1.0000
  H   H108      1.0  0.44226  0.97583  0.92407  1.0000
  H   H109      1.0  0.36472  0.05608  0.86748  1.0000
  H   H110      1.0  0.89042  0.56953  0.94144  1.0000
  H   H111      1.0  0.59949  0.92440  0.57234  1.0000
  H   H112      1.0  0.37737  0.93883  0.90007  1.0000
  H   H113      1.0  0.41376  0.10015  0.56131  1.0000
  H   H114      1.0  0.87760  0.57780  0.53262  1.0000
  H   H115      1.0  0.61960  0.92272  0.98514  1.0000
  H   H116      1.0  0.40430  0.90522  0.54114  1.0000
  H   H117      1.0  0.47442  0.06115  0.58350  1.0000
  H   H118      1.0  0.94110  0.54022  0.54190  1.0000
  H   H119      1.0  0.55753  0.96137  0.97519  1.0000
  H   H120      1.0  0.46694  0.94293  0.56231  1.0000
  H   H121      1.0  0.29104  0.13234  0.81975  1.0000
  H   H122      1.0  0.28633  0.86983  0.80370  1.0000
  H   H123      1.0  0.24522  0.17784  0.86150  1.0000
  H   H124      1.0  0.23741  0.82476  0.83364  1.0000
  H   H125      1.0  0.28871  0.22982  0.56379  1.0000
  H   H126      1.0  0.29529  0.76875  0.56942  1.0000
  H   H127      1.0  0.33274  0.18364  0.51847  1.0000
  H   H128      1.0  0.34295  0.81401  0.53712  1.0000
  H   H129      1.0  0.45144  0.69446  0.68364  1.0000
  H   H130      1.0  0.54714  0.69792  0.80664  1.0000
  H   H131      1.0  0.95115  0.20149  0.66272  1.0000
  H   H132      1.0  0.04768  0.19314  0.80726  1.0000
  H   H133      1.0  0.54866  0.30104  0.84679  1.0000
  H   H134      1.0  0.44499  0.27704  0.60673  1.0000
  H   H135      1.0  0.05116  0.80139  0.85124  1.0000
  H   H136      1.0  0.94760  0.77876  0.61558  1.0000
  H   H137      1.0  0.46736  0.72162  0.80170  1.0000
  H   H138      1.0  0.53081  0.72225  0.68220  1.0000
  H   H139      1.0  0.96867  0.22753  0.78398  1.0000
  H   H140      1.0  0.03192  0.21749  0.68289  1.0000
  H   H141      1.0  0.53106  0.28852  0.69608  1.0000
  H   H142      1.0  0.46535  0.26182  0.75210  1.0000
  H   H143      1.0  0.03292  0.78855  0.70144  1.0000
  H   H144      1.0  0.96700  0.76091  0.75653  1.0000
  C   C181      1.0  0.99711  0.48374  0.74805  1.0000
  C   C182      1.0  0.49972  0.98420  0.75828  1.0000
  C   C183      1.0  0.99670  0.51620  0.75546  1.0000
  C   C184      1.0  0.49882  0.01656  0.76033  1.0000
  C  Sn1       1.0  0.14425  0.21752  0.89338  1.0000
  C   C185      1.0  0.10562  0.22538  0.80060  1.0000
  C  Sn2       1.0  0.10959  0.23423  0.67758  1.0000
  C  Sn3       1.0  0.15307  0.23524  0.64660  1.0000
  C   C186      1.0  0.19167  0.22738  0.73933  1.0000
  C  Sn4       1.0  0.18774  0.21853  0.86239  1.0000
  O  Te1       1.0  0.06332  0.20564  0.01575  1.0000
  O  Te2       1.0  0.07048  0.24199  0.58646  1.0000
  O  Te3       1.0  0.15781  0.24403  0.52411  1.0000
  O  Te4       1.0  0.22682  0.21077  0.95347  1.0000
  Mg  Mg1       1.0  0.09448  0.25247  0.43296  1.0000
  Mg  Mg2       1.0  0.12668  0.19716  0.10697  1.0000
  C  Sn5       1.0  0.69268  0.81432  0.93017  1.0000
  C   C187      1.0  0.69188  0.84447  0.87734  1.0000
  C  Sn6       1.0  0.71091  0.84965  0.77078  1.0000
  C  Sn7       1.0  0.73114  0.82418  0.71582  1.0000
  C   C188      1.0  0.73192  0.79405  0.76862  1.0000
  C  Sn8       1.0  0.71290  0.78885  0.87521  1.0000
  O  Te5       1.0  0.59728  0.80658  0.03671  1.0000
  O  Te6       1.0  0.70972  0.88000  0.71968  1.0000
  O  Te7       1.0  0.75037  0.82884  0.60920  1.0000
  O  Te8       1.0  0.71408  0.75852  0.92628  1.0000
  Mg  Mg3       1.0  0.74037  0.87445  0.57408  1.0000
  Mg  Mg4       1.0  0.60725  0.76093  0.07183  1.0000
  C  Sn9       1.0  0.12217  0.74904  0.17728  1.0000
  C   C189      1.0  0.10262  0.76729  0.26132  1.0000
  C  Sn10      1.0  0.12863  0.78968  0.34287  1.0000
  C  Sn11      1.0  0.17514  0.79394  0.34032  1.0000
  C   C190      1.0  0.19466  0.77571  0.25630  1.0000
  C  Sn12      1.0  0.16868  0.75330  0.17472  1.0000
  O  Te9       1.0  0.09552  0.72679  0.09660  1.0000
  O  Te10      1.0  0.10833  0.80764  0.42609  1.0000
  O  Te11      1.0  0.20178  0.81621  0.42109  1.0000
  O  Te12      1.0  0.18895  0.73536  0.09153  1.0000
  Mg  Mg5       1.0  0.15870  0.83497  0.51744  1.0000
  Mg  Mg6       1.0  0.13861  0.70803  0.00010  1.0000
  C  Sn13      1.0  0.22946  0.67262  0.20006  1.0000
  C   C191      1.0  0.23051  0.70231  0.25975  1.0000
  C  Sn14      1.0  0.21112  0.70663  0.36661  1.0000
  C  Sn15      1.0  0.19026  0.68073  0.41489  1.0000
  C   C192      1.0  0.18922  0.65105  0.35523  1.0000
  C  Sn16      1.0  0.20860  0.64671  0.24834  1.0000
  O  Te13      1.0  0.24906  0.66884  0.09336  1.0000
  O  Te14      1.0  0.21258  0.73655  0.42463  1.0000
  O  Te15      1.0  0.17066  0.68453  0.52168  1.0000
  O  Te16      1.0  0.20716  0.61682  0.19035  1.0000
  Mg  Mg7       1.0  0.18124  0.72983  0.56757  1.0000
  Mg  Mg8       1.0  0.23851  0.62351  0.04745  1.0000
  C  Sn17      1.0  0.71703  0.19846  0.92040  1.0000
  C   C193      1.0  0.74017  0.20236  0.82111  1.0000
  C  Sn18      1.0  0.73200  0.18182  0.71484  1.0000
  C  Sn19      1.0  0.70001  0.15688  0.70761  1.0000
  C   C194      1.0  0.67689  0.15300  0.80685  1.0000
  C  Sn20      1.0  0.68504  0.17352  0.91317  1.0000
  O  Te17      1.0  0.64957  0.21616  0.02573  1.0000
  O  Te18      1.0  0.75556  0.18619  0.61679  1.0000
  O  Te19      1.0  0.69132  0.13607  0.60217  1.0000
  O  Te20      1.0  0.58533  0.16606  0.01117  1.0000
  Mg  Mg9       1.0  0.73192  0.15171  0.49295  1.0000
  Mg  Mg10      1.0  0.60892  0.20053  0.13502  1.0000
  C  Sn21      1.0  0.18006  0.69042  0.89085  1.0000
  C   C195      1.0  0.17326  0.66152  0.82434  1.0000
  C  Sn22      1.0  0.20046  0.65300  0.73848  1.0000
  C  Sn23      1.0  0.23520  0.67380  0.71874  1.0000
  C   C196      1.0  0.24200  0.70268  0.78525  1.0000
  C  Sn24      1.0  0.21481  0.71122  0.87112  1.0000
  O  Te21      1.0  0.15247  0.69844  0.97623  1.0000
  O  Te22      1.0  0.19300  0.62399  0.67305  1.0000
  O  Te23      1.0  0.26280  0.66576  0.63328  1.0000
  O  Te24      1.0  0.22226  0.74021  0.93654  1.0000
  Mg  Mg11      1.0  0.23946  0.62366  0.56681  1.0000
  Mg  Mg12      1.0  0.09966  0.73745  0.04284  1.0000
  C  Sn25      1.0  0.57198  0.04350  0.14905  1.0000
  C   C197      1.0  0.55418  0.03206  0.25055  1.0000
  C  Sn26      1.0  0.56315  0.04773  0.36956  1.0000
  C  Sn27      1.0  0.59045  0.07544  0.38749  1.0000
  C   C198      1.0  0.60823  0.08688  0.28603  1.0000
  C  Sn28      1.0  0.59929  0.07121  0.16698  1.0000
  O  Te25      1.0  0.56258  0.02745  0.03090  1.0000
  O  Te26      1.0  0.54499  0.03583  0.46960  1.0000
  O  Te27      1.0  0.59985  0.09149  0.50577  1.0000
  O  Te28      1.0  0.61743  0.08310  0.06697  1.0000
  Mg  Mg13      1.0  0.56739  0.06606  0.61267  1.0000
  Mg  Mg14      1.0  0.67119  0.05601  0.92385  1.0000
  C  Sn29      1.0  0.85760  0.76278  0.35457  1.0000
  C   C199      1.0  0.81892  0.77537  0.27435  1.0000
  C  Sn30      1.0  0.82072  0.78603  0.15193  1.0000
  C  Sn31      1.0  0.86203  0.78404  0.10874  1.0000
  C   C200      1.0  0.90068  0.77144  0.18893  1.0000
  C  Sn32      1.0  0.89891  0.76078  0.31138  1.0000
  O  Te29      1.0  0.85503  0.75227  0.47657  1.0000
  O  Te30      1.0  0.78160  0.79854  0.07348  1.0000
  O  Te31      1.0  0.94074  0.79767  0.98663  1.0000
  O  Te32      1.0  0.93800  0.74827  0.38979  1.0000
  Mg  Mg15      1.0  0.87834  0.81283  0.91519  1.0000
  Mg  Mg16      1.0  0.91747  0.73707  0.54807  1.0000
  C  Sn33      1.0  0.85522  0.79708  0.64706  1.0000
  C   C201      1.0  0.89436  0.78541  0.72835  1.0000
  C  Sn34      1.0  0.89101  0.76276  0.82027  1.0000
  C  Sn35      1.0  0.84763  0.75152  0.83111  1.0000
  C   C202      1.0  0.80852  0.76318  0.74984  1.0000
  C  Sn36      1.0  0.81184  0.78584  0.65791  1.0000
  O  Te33      1.0  0.85938  0.81971  0.55587  1.0000
  O  Te34      1.0  0.93062  0.75146  0.90049  1.0000
  O  Te35      1.0  0.84350  0.72887  0.92241  1.0000
  O  Te36      1.0  0.77227  0.79713  0.57771  1.0000
  Mg  Mg17      1.0  0.83118  0.71761  0.00961  1.0000
  Mg  Mg18      1.0  0.79549  0.82787  0.46851  1.0000
  C  Sn37      1.0  0.79782  0.70120  0.60040  1.0000
  C   C203      1.0  0.76336  0.70417  0.66909  1.0000
  C  Sn38      1.0  0.75725  0.68092  0.75591  1.0000
  C  Sn39      1.0  0.78620  0.65414  0.77452  1.0000
  C   C204      1.0  0.82065  0.65119  0.70587  1.0000
  C  Sn40      1.0  0.82678  0.67443  0.61901  1.0000
  O  Te37      1.0  0.80331  0.72473  0.51411  1.0000
  O  Te38      1.0  0.72254  0.68441  0.82344  1.0000
  O  Te39      1.0  0.78068  0.63060  0.86089  1.0000
  O  Te40      1.0  0.86146  0.67095  0.55152  1.0000
  Mg  Mg19      1.0  0.72861  0.64602  0.93034  1.0000
  Mg  Mg20      1.0  0.85544  0.70933  0.44465  1.0000
  C  Sn41      1.0  0.41334  0.06817  0.09879  1.0000
  C   C205      1.0  0.38493  0.07423  0.18413  1.0000
  C  Sn42      1.0  0.39653  0.06346  0.31039  1.0000
  C  Sn43      1.0  0.43739  0.04628  0.35226  1.0000
  C   C206      1.0  0.46578  0.04023  0.26694  1.0000
  C  Sn44      1.0  0.45420  0.05099  0.14065  1.0000
  O  Te41      1.0  0.47724  0.08227  0.97300  1.0000
  O  Te42      1.0  0.36758  0.06980  0.39394  1.0000
  O  Te43      1.0  0.44965  0.03528  0.47816  1.0000
  O  Te44      1.0  0.48313  0.04466  0.05713  1.0000
  Mg  Mg21      1.0  0.39909  0.04988  0.55600  1.0000
  Mg  Mg22      1.0  0.52784  0.06769  0.89508  1.0000
  C  Sn45      1.0  0.11836  0.75498  0.66925  1.0000
  C   C207      1.0  0.10241  0.76910  0.77031  1.0000
  C  Sn46      1.0  0.13173  0.78683  0.86467  1.0000
  C  Sn47      1.0  0.17796  0.79054  0.85785  1.0000
  C   C208      1.0  0.19389  0.77643  0.75683  1.0000
  C  Sn48      1.0  0.16459  0.75869  0.66243  1.0000
  O  Te45      1.0  0.08844  0.73736  0.57597  1.0000
  O  Te46      1.0  0.11500  0.80072  0.96480  1.0000
  O  Te47      1.0  0.20788  0.80818  0.95124  1.0000
  O  Te48      1.0  0.18130  0.74481  0.56234  1.0000
  Mg  Mg23      1.0  0.09283  0.81941  0.06879  1.0000
  Mg  Mg24      1.0  0.12732  0.72303  0.45827  1.0000
  C  Sn49      1.0  0.80962  0.29447  0.13518  1.0000
  C   C209      1.0  0.78051  0.29248  0.22079  1.0000
  C  Sn50      1.0  0.76582  0.31990  0.27390  1.0000
  C  Sn51      1.0  0.78050  0.34994  0.24070  1.0000
  C   C210      1.0  0.80958  0.35192  0.15513  1.0000
  C  Sn52      1.0  0.82430  0.32450  0.10198  1.0000
  O  Te49      1.0  0.82388  0.26674  0.08325  1.0000
  O  Te50      1.0  0.73673  0.31732  0.35930  1.0000
  O  Te51      1.0  0.76621  0.37767  0.29272  1.0000
  O  Te52      1.0  0.85336  0.32708  0.01662  1.0000
  Mg  Mg25      1.0  0.72663  0.36191  0.40463  1.0000
  Mg  Mg26      1.0  0.93964  0.28561  0.97118  1.0000
  C  Sn53      1.0  0.05344  0.44445  0.63108  1.0000
  C   C211      1.0  0.03538  0.45659  0.73200  1.0000
  C  Sn54      1.0  0.05964  0.45422  0.85898  1.0000
  C  Sn55      1.0  0.10288  0.43942  0.88564  1.0000
  C   C212      1.0  0.12092  0.42730  0.78475  1.0000
  C  Sn56      1.0  0.09667  0.42966  0.65774  1.0000
  O  Te53      1.0  0.02859  0.44709  0.50487  1.0000
  O  Te54      1.0  0.04088  0.46652  0.95827  1.0000
  O  Te55      1.0  0.05156  0.43369  0.01197  1.0000
  O  Te56      1.0  0.11542  0.41737  0.55848  1.0000
  Mg  Mg27      1.0  0.01165  0.45409  0.11431  1.0000
  Mg  Mg28      1.0  0.06853  0.42669  0.40242  1.0000
  C  Sn57      1.0  0.64612  0.71533  0.37533  1.0000
  C   C213      1.0  0.60828  0.73032  0.30083  1.0000
  C  Sn58      1.0  0.61156  0.74539  0.18720  1.0000
  C  Sn59      1.0  0.65353  0.74546  0.14715  1.0000
  C   C214      1.0  0.69134  0.73047  0.22161  1.0000
  C  Sn60      1.0  0.68809  0.71540  0.33528  1.0000
  O  Te57      1.0  0.64207  0.70041  0.48858  1.0000
  O  Te58      1.0  0.57326  0.76023  0.11436  1.0000
  O  Te59      1.0  0.65756  0.76040  0.03381  1.0000
  O  Te60      1.0  0.72636  0.70056  0.40809  1.0000
  Mg  Mg29      1.0  0.67198  0.78046  0.96743  1.0000
  Mg  Mg30      1.0  0.70385  0.68342  0.55499  1.0000
  C  Sn61      1.0  0.35218  0.74932  0.82329  1.0000
  C   C215      1.0  0.31317  0.73828  0.73801  1.0000
  C  Sn62      1.0  0.31618  0.71405  0.64993  1.0000
  C  Sn63      1.0  0.35908  0.70054  0.64708  1.0000
  C   C216      1.0  0.39805  0.71157  0.73234  1.0000
  C  Sn64      1.0  0.39508  0.73581  0.82044  1.0000
  O  Te61      1.0  0.34837  0.77357  0.91054  1.0000
  O  Te62      1.0  0.27671  0.70342  0.56560  1.0000
  O  Te63      1.0  0.36286  0.67627  0.55973  1.0000
  O  Te64      1.0  0.43452  0.74644  0.90475  1.0000
  Mg  Mg31      1.0  0.29936  0.66985  0.46441  1.0000
  Mg  Mg32      1.0  0.33573  0.77689  0.00601  1.0000
  C  Sn65      1.0  0.05606  0.41013  0.27559  1.0000
  C   C217      1.0  0.09968  0.41429  0.25282  1.0000
  C  Sn66      1.0  0.11756  0.44466  0.24890  1.0000
  C  Sn67      1.0  0.09131  0.47143  0.26823  1.0000
  C   C218      1.0  0.04773  0.46726  0.29100  1.0000
  C  Sn68      1.0  0.02981  0.43689  0.29491  1.0000
  O  Te65      1.0  0.03887  0.37955  0.27910  1.0000
  O  Te66      1.0  0.16124  0.44823  0.22594  1.0000
  O  Te67      1.0  0.10854  0.50203  0.26469  1.0000
  O  Te68      1.0  0.98616  0.43332  0.31788  1.0000
  Mg  Mg33      1.0  0.16976  0.49470  0.23022  1.0000
  Mg  Mg34      1.0  0.97762  0.38686  0.31369  1.0000
  C  Sn69      1.0  0.64684  0.74966  0.66083  1.0000
  C   C219      1.0  0.68530  0.74044  0.75144  1.0000
  C  Sn70      1.0  0.68143  0.71884  0.84671  1.0000
  C  Sn71      1.0  0.63822  0.70618  0.85147  1.0000
  C   C220      1.0  0.59979  0.71540  0.76088  1.0000
  C  Sn72      1.0  0.60363  0.73700  0.66558  1.0000
  O  Te69      1.0  0.65151  0.77129  0.56643  1.0000
  O  Te70      1.0  0.72037  0.70998  0.93628  1.0000
  O  Te71      1.0  0.63357  0.68454  0.94597  1.0000
  O  Te72      1.0  0.56472  0.74585  0.57605  1.0000
  Mg  Mg35      1.0  0.62042  0.67668  0.04648  1.0000
  Mg  Mg36      1.0  0.58846  0.77604  0.46577  1.0000
  C  Sn73      1.0  0.24528  0.33440  0.76462  1.0000
  C   C221      1.0  0.24548  0.30444  0.81868  1.0000
  C  Sn74      1.0  0.20981  0.29500  0.87472  1.0000
  C  Sn75      1.0  0.17316  0.31594  0.87669  1.0000
  C   C222      1.0  0.17296  0.34588  0.82263  1.0000
  C  Sn76      1.0  0.20863  0.35534  0.76659  1.0000
  O  Te73      1.0  0.28130  0.34334  0.70911  1.0000
  O  Te74      1.0  0.21077  0.26493  0.92819  1.0000
  O  Te75      1.0  0.13713  0.30698  0.93226  1.0000
  O  Te76      1.0  0.20767  0.38539  0.71312  1.0000
  Mg  Mg37      1.0  0.15384  0.26361  0.99261  1.0000
  Mg  Mg38      1.0  0.26457  0.38673  0.64862  1.0000
  C  Sn77      1.0  0.79004  0.34008  0.79645  1.0000
  C   C223      1.0  0.81624  0.34341  0.70388  1.0000
  C  Sn78      1.0  0.81150  0.32198  0.60096  1.0000
  C  Sn79      1.0  0.77989  0.29670  0.59028  1.0000
  C   C224      1.0  0.75370  0.29338  0.68279  1.0000
  C  Sn80      1.0  0.75843  0.31480  0.78577  1.0000
  O  Te77      1.0  0.79534  0.36178  0.89852  1.0000
  O  Te78      1.0  0.83808  0.32579  0.50964  1.0000
  O  Te79      1.0  0.77461  0.27499  0.48810  1.0000
  O  Te80      1.0  0.73186  0.31100  0.87703  1.0000
  Mg  Mg39      1.0  0.81851  0.29014  0.38805  1.0000
  Mg  Mg40      1.0  0.75139  0.34665  0.99863  1.0000
  C  Sn81      1.0  0.10239  0.54651  0.69858  1.0000
  C   C225      1.0  0.10346  0.57860  0.73229  1.0000
  C  Sn82      1.0  0.07191  0.59100  0.79838  1.0000
  C  Sn83      1.0  0.03862  0.57090  0.83154  1.0000
  C   C226      1.0  0.03757  0.53883  0.79786  1.0000
  C  Sn84      1.0  0.06910  0.52642  0.73175  1.0000
  O  Te81      1.0  0.13426  0.53463  0.63254  1.0000
  O  Te82      1.0  0.07364  0.62315  0.83100  1.0000
  O  Te83      1.0  0.00674  0.58281  0.89764  1.0000
  O  Te84      1.0  0.06738  0.49428  0.69916  1.0000
  Mg  Mg41      1.0  0.02293  0.62820  0.92090  1.0000
  Mg  Mg42      1.0  0.11810  0.48920  0.60931  1.0000
  C  Sn85      1.0  0.37856  0.25147  0.82166  1.0000
  C   C227      1.0  0.39488  0.26501  0.72130  1.0000
  C  Sn86      1.0  0.36725  0.28506  0.63463  1.0000
  C  Sn87      1.0  0.32240  0.29174  0.64859  1.0000
  C   C228      1.0  0.30611  0.27821  0.74891  1.0000
  C  Sn88      1.0  0.33371  0.25815  0.83563  1.0000
  O  Te85      1.0  0.40677  0.23150  0.90720  1.0000
  O  Te86      1.0  0.38431  0.29830  0.53504  1.0000
  O  Te87      1.0  0.29419  0.31173  0.56295  1.0000
  O  Te88      1.0  0.31667  0.24492  0.93518  1.0000
  Mg  Mg43      1.0  0.33285  0.32406  0.44298  1.0000
  Mg  Mg44      1.0  0.29194  0.21607  0.02732  1.0000
  C  Sn89      1.0  0.88256  0.45719  0.75177  1.0000
  C   C229      1.0  0.87900  0.42670  0.69825  1.0000
  C  Sn90      1.0  0.91709  0.41179  0.66964  1.0000
  C  Sn91      1.0  0.95963  0.42767  0.69513  1.0000
  C   C230      1.0  0.96318  0.45814  0.74864  1.0000
  C  Sn92      1.0  0.92510  0.47307  0.77726  1.0000
  O  Te89      1.0  0.84403  0.47164  0.77960  1.0000
  O  Te90      1.0  0.91268  0.38131  0.61613  1.0000
  O  Te91      1.0  0.99817  0.41319  0.66725  1.0000
  O  Te92      1.0  0.92949  0.50353  0.83075  1.0000
  Mg  Mg45      1.0  0.97499  0.37151  0.59516  1.0000
  Mg  Mg46      1.0  0.86722  0.51334  0.85183  1.0000
  C  Sn93      1.0  0.60140  0.04817  0.69021  1.0000
  C   C231      1.0  0.60543  0.07884  0.74196  1.0000
  C  Sn94      1.0  0.57797  0.08870  0.82526  1.0000
  C  Sn95      1.0  0.54585  0.06746  0.85758  1.0000
  C   C232      1.0  0.54184  0.03682  0.80586  1.0000
  C  Sn96      1.0  0.56928  0.02693  0.72252  1.0000
  O  Te93      1.0  0.62920  0.03882  0.60714  1.0000
  O  Te94      1.0  0.58260  0.11948  0.87575  1.0000
  O  Te95      1.0  0.51804  0.07684  0.94072  1.0000
  O  Te96      1.0  0.56450  0.99618  0.67206  1.0000
  Mg  Mg47      1.0  0.53705  0.12114  0.98480  1.0000
  Mg  Mg48      1.0  0.61004  0.99448  0.56306  1.0000
