data_image0
_chemical_formula_structural       N8C16N8H24C4N8C16N8H24C4SnCSn2CSnTe4Mg2SnCSn2CSnTe4Mg2SnCSn2CSnTe4Mg2SnCSn2CSnTe4Mg2SnCSn2CSnTe4Mg2SnCSn2CSnTe4Mg2SnCSn2CSnTe4Mg2SnCSn2CSnTe4Mg2SnCSn2CSnTe4Mg2SnCSn2CSnTe4Mg2SnCSn2CSnTe4Mg2SnCSn2CSnTe4Mg2SnCSn2CSnTe4Mg2SnCSn2CSnTe4Mg2SnCSn2CSnTe4Mg2SnCSn2CSnTe4Mg2SnCSn2CSnTe4Mg2SnCSn2CSnTe4Mg2SnCSn2CSnTe4Mg2SnCSn2CSnTe4Mg2SnCSn2CSnTe4Mg2SnCSn2CSnTe4Mg2SnCSn2CSnTe4Mg2SnCSn2CSnTe4Mg2SnCSn2CSnTe4Mg2SnCSn2CSnTe4Mg2SnCSn2CSnTe4Mg2SnCSn2CSnTe4Mg2SnCSn2CSnTe4Mg2SnCSn2CSnTe4Mg2SnCSn2CSnTe4Mg2SnCSn2CSnTe4Mg2SnCSn2CSnTe4Mg2SnCSn2CSnTe4Mg2SnCSn2CSnTe4Mg2SnCSn2CSnTe4Mg2SnCSn2CSnTe4Mg2SnCSn2CSnTe4Mg2SnCSn2CSnTe4Mg2SnCSn2CSnTe4Mg2SnCSn2CSnTe4Mg2SnCSn2CSnTe4Mg2SnCSn2CSnTe4Mg2SnCSn2CSnTe4Mg2SnCSn2CSnTe4Mg2SnCSn2CSnTe4Mg2SnCSn2CSnTe4Mg2SnCSn2CSnTe4Mg2
_chemical_formula_sum              "N32 C136 H48 Sn192 Te192 Mg96"
_cell_length_a       30.1121
_cell_length_b       42.2755
_cell_length_c       10.6526
_cell_angle_alpha    90.7073
_cell_angle_beta     102.434
_cell_angle_gamma    89.9932

_symmetry_space_group_name_H-M    'P1'
_space_group_IT_number       1

loop_
  _space_group_symop_operation_xyz
  'x, y, z'

loop_
  _atom_site_type_symbol
  _atom_site_label
  _atom_site_symmetry_multiplicity
  _atom_site_fract_x
  _atom_site_fract_y
  _atom_site_fract_z
  _atom_site_occupancy
  N   N1        1.0  0.35458  0.10393  0.22443  1.0000
  N   N2        1.0  0.64434  0.10568  0.26682  1.0000
  N   N3        1.0  0.85810  0.60716  0.23594  1.0000
  N   N4        1.0  0.15051  0.60119  0.25558  1.0000
  N   N5        1.0  0.65052  0.89834  0.27729  1.0000
  N   N6        1.0  0.35623  0.89491  0.23156  1.0000
  N   N7        1.0  0.14584  0.39536  0.27441  1.0000
  N   N8        1.0  0.85367  0.39784  0.23139  1.0000
  C   C1        1.0  0.35077  0.12899  0.15432  1.0000
  C   C2        1.0  0.64850  0.13046  0.34066  1.0000
  C   C3        1.0  0.84726  0.62900  0.15089  1.0000
  C   C4        1.0  0.15344  0.62581  0.33021  1.0000
  C   C5        1.0  0.66039  0.87586  0.36004  1.0000
  C   C6        1.0  0.34590  0.87239  0.14681  1.0000
  C   C7        1.0  0.15412  0.37236  0.35513  1.0000
  C   C8        1.0  0.84988  0.37329  0.15600  1.0000
  C   C9        1.0  0.25934  0.26432  0.25255  1.0000
  C   C10       1.0  0.74107  0.26624  0.24630  1.0000
  C   C11       1.0  0.76192  0.76670  0.25196  1.0000
  C   C12       1.0  0.24190  0.76423  0.25138  1.0000
  C   C13       1.0  0.74166  0.73759  0.24271  1.0000
  C   C14       1.0  0.26144  0.73483  0.26249  1.0000
  C   C15       1.0  0.23974  0.23489  0.24325  1.0000
  C   C16       1.0  0.76011  0.23661  0.25939  1.0000
  N   N9        1.0  0.05313  0.78167  0.25845  1.0000
  N   N10       1.0  0.94716  0.77619  0.19795  1.0000
  N   N11       1.0  0.55407  0.28051  0.27957  1.0000
  N   N12       1.0  0.44552  0.27764  0.21172  1.0000
  N   N13       1.0  0.94670  0.22012  0.22752  1.0000
  N   N14       1.0  0.05443  0.21844  0.28839  1.0000
  N   N15       1.0  0.44815  0.71894  0.22817  1.0000
  N   N16       1.0  0.55478  0.72451  0.27618  1.0000
  H   H1        1.0  0.37254  0.13362  0.08576  1.0000
  H   H2        1.0  0.62707  0.13428  0.41119  1.0000
  H   H3        1.0  0.85975  0.62912  0.06106  1.0000
  H   H4        1.0  0.13040  0.62930  0.39663  1.0000
  H   H5        1.0  0.64647  0.87516  0.44749  1.0000
  H   H6        1.0  0.35921  0.87097  0.05839  1.0000
  H   H7        1.0  0.13880  0.37120  0.44000  1.0000
  H   H8        1.0  0.87144  0.36981  0.08565  1.0000
  H   H9        1.0  0.45466  0.69798  0.18784  1.0000
  H   H10       1.0  0.54655  0.70256  0.30190  1.0000
  H   H11       1.0  0.95322  0.19970  0.18363  1.0000
  H   H12       1.0  0.04815  0.19671  0.32080  1.0000
  H   H13       1.0  0.54604  0.30144  0.31702  1.0000
  H   H14       1.0  0.45302  0.29827  0.17278  1.0000
  H   H15       1.0  0.04558  0.80348  0.28941  1.0000
  H   H16       1.0  0.95429  0.79619  0.15403  1.0000
  H   H17       1.0  0.47078  0.72310  0.31255  1.0000
  H   H18       1.0  0.53108  0.73275  0.20087  1.0000
  H   H19       1.0  0.96984  0.22426  0.31087  1.0000
  H   H20       1.0  0.03117  0.22384  0.20712  1.0000
  H   H21       1.0  0.53146  0.27481  0.19677  1.0000
  H   H22       1.0  0.46921  0.27203  0.29165  1.0000
  H   H23       1.0  0.03212  0.77591  0.17290  1.0000
  H   H24       1.0  0.97202  0.77083  0.27561  1.0000
  C   C17       1.0  0.00063  0.48473  0.25447  1.0000
  C   C18       1.0  0.50174  0.98383  0.26238  1.0000
  C   C19       1.0  0.00146  0.51717  0.24719  1.0000
  C   C20       1.0  0.50148  0.01616  0.25781  1.0000
  N   N17       1.0  0.35201  0.10469  0.72367  1.0000
  N   N18       1.0  0.64511  0.10358  0.76976  1.0000
  N   N19       1.0  0.84838  0.60074  0.74389  1.0000
  N   N20       1.0  0.14283  0.60422  0.76653  1.0000
  N   N21       1.0  0.64594  0.89701  0.77222  1.0000
  N   N22       1.0  0.35310  0.89604  0.72710  1.0000
  N   N23       1.0  0.14567  0.39877  0.76176  1.0000
  N   N24       1.0  0.85051  0.39568  0.72768  1.0000
  C   C21       1.0  0.34600  0.12893  0.64878  1.0000
  C   C22       1.0  0.65420  0.12709  0.85020  1.0000
  C   C23       1.0  0.84812  0.62572  0.67489  1.0000
  C   C24       1.0  0.15188  0.62749  0.84811  1.0000
  C   C25       1.0  0.64997  0.87270  0.84610  1.0000
  C   C26       1.0  0.35140  0.86985  0.66203  1.0000
  C   C27       1.0  0.14964  0.37495  0.83846  1.0000
  C   C28       1.0  0.84107  0.37261  0.64527  1.0000
  C   C29       1.0  0.25927  0.26653  0.76517  1.0000
  C   C30       1.0  0.73851  0.26401  0.74454  1.0000
  C   C31       1.0  0.76014  0.76543  0.76210  1.0000
  C   C32       1.0  0.23945  0.76426  0.74041  1.0000
  C   C33       1.0  0.74102  0.73565  0.74463  1.0000
  C   C34       1.0  0.25804  0.73463  0.75063  1.0000
  C   C35       1.0  0.24030  0.23678  0.75389  1.0000
  C   C36       1.0  0.75853  0.23485  0.75189  1.0000
  N   N25       1.0  0.05490  0.78430  0.78625  1.0000
  N   N26       1.0  0.94526  0.77742  0.70923  1.0000
  N   N27       1.0  0.55274  0.28416  0.78133  1.0000
  N   N28       1.0  0.44327  0.27763  0.70109  1.0000
  N   N29       1.0  0.94424  0.22210  0.70467  1.0000
  N   N30       1.0  0.05330  0.21441  0.76978  1.0000
  N   N31       1.0  0.44416  0.71564  0.72053  1.0000
  N   N32       1.0  0.55339  0.71875  0.76677  1.0000
  H   H25       1.0  0.36398  0.13213  0.57014  1.0000
  H   H26       1.0  0.63943  0.12907  0.93597  1.0000
  H   H27       1.0  0.87290  0.62893  0.61372  1.0000
  H   H28       1.0  0.13680  0.62910  0.93339  1.0000
  H   H29       1.0  0.62772  0.86908  0.91425  1.0000
  H   H30       1.0  0.37545  0.86431  0.60045  1.0000
  H   H31       1.0  0.12762  0.37213  0.90780  1.0000
  H   H32       1.0  0.85588  0.37084  0.55955  1.0000
  H   H33       1.0  0.45144  0.69446  0.68364  1.0000
  H   H34       1.0  0.54714  0.69792  0.80664  1.0000
  H   H35       1.0  0.95115  0.20149  0.66272  1.0000
  H   H36       1.0  0.04768  0.19314  0.80726  1.0000
  H   H37       1.0  0.54866  0.30104  0.84679  1.0000
  H   H38       1.0  0.44499  0.27704  0.60673  1.0000
  H   H39       1.0  0.05116  0.80139  0.85124  1.0000
  H   H40       1.0  0.94760  0.77876  0.61558  1.0000
  H   H41       1.0  0.46736  0.72162  0.80170  1.0000
  H   H42       1.0  0.53081  0.72225  0.68220  1.0000
  H   H43       1.0  0.96867  0.22753  0.78398  1.0000
  H   H44       1.0  0.03192  0.21749  0.68289  1.0000
  H   H45       1.0  0.53106  0.28852  0.69608  1.0000
  H   H46       1.0  0.46535  0.26182  0.75210  1.0000
  H   H47       1.0  0.03292  0.78855  0.70144  1.0000
  H   H48       1.0  0.96700  0.76091  0.75653  1.0000
  C   C37       1.0  0.99711  0.48374  0.74805  1.0000
  C   C38       1.0  0.49972  0.98420  0.75828  1.0000
  C   C39       1.0  0.99670  0.51620  0.75546  1.0000
  C   C40       1.0  0.49882  0.01656  0.76033  1.0000
  C  Sn1       1.0  0.14651  0.21702  0.39548  1.0000
  C   C41       1.0  0.10718  0.22705  0.31022  1.0000
  C  Sn2       1.0  0.10925  0.23724  0.18736  1.0000
  C  Sn3       1.0  0.15150  0.23739  0.14888  1.0000
  C   C42       1.0  0.19080  0.22736  0.23410  1.0000
  C  Sn4       1.0  0.18876  0.21717  0.35699  1.0000
  O  Te1       1.0  0.14364  0.20693  0.51782  1.0000
  O  Te2       1.0  0.06948  0.24716  0.10384  1.0000
  O  Te3       1.0  0.15434  0.24749  0.02642  1.0000
  O  Te4       1.0  0.22850  0.20725  0.44048  1.0000
  Mg  Mg1       1.0  0.16695  0.26189  0.94716  1.0000
  Mg  Mg2       1.0  0.20723  0.19561  0.59715  1.0000
  C  Sn5       1.0  0.82958  0.20514  0.15468  1.0000
  C   C43       1.0  0.81159  0.22096  0.24837  1.0000
  C  Sn6       1.0  0.83883  0.24136  0.33679  1.0000
  C  Sn7       1.0  0.88502  0.24607  0.33140  1.0000
  C   C44       1.0  0.90298  0.23026  0.23775  1.0000
  C  Sn8       1.0  0.87576  0.20985  0.14930  1.0000
  O  Te5       1.0  0.80171  0.18486  0.06727  1.0000
  O  Te6       1.0  0.82009  0.25691  0.42960  1.0000
  O  Te7       1.0  0.91288  0.26637  0.41893  1.0000
  O  Te8       1.0  0.89448  0.19431  0.05652  1.0000
  Mg  Mg3       1.0  0.87172  0.28217  0.52748  1.0000
  Mg  Mg4       1.0  0.91905  0.17216  0.95856  1.0000
  C  Sn9       1.0  0.64612  0.71533  0.37533  1.0000
  C   C45       1.0  0.60828  0.73032  0.30083  1.0000
  C  Sn10      1.0  0.61156  0.74539  0.18720  1.0000
  C  Sn11      1.0  0.65353  0.74546  0.14715  1.0000
  C   C46       1.0  0.69134  0.73047  0.22161  1.0000
  C  Sn12      1.0  0.68809  0.71540  0.33528  1.0000
  O  Te9       1.0  0.64207  0.70041  0.48858  1.0000
  O  Te10      1.0  0.57326  0.76023  0.11436  1.0000
  O  Te11      1.0  0.65756  0.76040  0.03381  1.0000
  O  Te12      1.0  0.72636  0.70056  0.40809  1.0000
  Mg  Mg5       1.0  0.67198  0.78046  0.96743  1.0000
  Mg  Mg6       1.0  0.70385  0.68342  0.55499  1.0000
  C  Sn13      1.0  0.33060  0.70450  0.15542  1.0000
  C   C47       1.0  0.31291  0.72041  0.24947  1.0000
  C  Sn14      1.0  0.34057  0.74042  0.33863  1.0000
  C  Sn15      1.0  0.38688  0.74463  0.33364  1.0000
  C   C48       1.0  0.40455  0.72873  0.23963  1.0000
  C  Sn16      1.0  0.37691  0.70871  0.15043  1.0000
  O  Te13      1.0  0.30232  0.68461  0.06726  1.0000
  O  Te14      1.0  0.32211  0.75606  0.43179  1.0000
  O  Te15      1.0  0.41516  0.76454  0.42191  1.0000
  O  Te16      1.0  0.39534  0.69308  0.05730  1.0000
  Mg  Mg7       1.0  0.37428  0.78066  0.53068  1.0000
  Mg  Mg8       1.0  0.41938  0.67159  0.95832  1.0000
  C  Sn17      1.0  0.82974  0.78144  0.10732  1.0000
  C   C49       1.0  0.81202  0.76585  0.20067  1.0000
  C  Sn18      1.0  0.84055  0.75680  0.31602  1.0000
  C  Sn19      1.0  0.88778  0.76350  0.33859  1.0000
  C   C50       1.0  0.90547  0.77909  0.24529  1.0000
  C  Sn20      1.0  0.87697  0.78814  0.12989  1.0000
  O  Te17      1.0  0.87675  0.79338  0.99271  1.0000
  O  Te18      1.0  0.82205  0.74122  0.40787  1.0000
  O  Te19      1.0  0.91693  0.75465  0.45332  1.0000
  O  Te20      1.0  0.89545  0.80371  0.03809  1.0000
  Mg  Mg9       1.0  0.87560  0.73397  0.54890  1.0000
  Mg  Mg10      1.0  0.91809  0.81409  0.89706  1.0000
  C  Sn21      1.0  0.12217  0.74904  0.17728  1.0000
  C   C51       1.0  0.10262  0.76729  0.26132  1.0000
  C  Sn22      1.0  0.12863  0.78968  0.34287  1.0000
  C  Sn23      1.0  0.17514  0.79394  0.34032  1.0000
  C   C52       1.0  0.19466  0.77571  0.25630  1.0000
  C  Sn24      1.0  0.16868  0.75330  0.17472  1.0000
  O  Te21      1.0  0.09552  0.72679  0.09660  1.0000
  O  Te22      1.0  0.10833  0.80764  0.42609  1.0000
  O  Te23      1.0  0.20178  0.81621  0.42109  1.0000
  O  Te24      1.0  0.18895  0.73536  0.09153  1.0000
  Mg  Mg11      1.0  0.15870  0.83497  0.51744  1.0000
  Mg  Mg12      1.0  0.13861  0.70803  0.00010  1.0000
  C  Sn25      1.0  0.35586  0.29908  0.15497  1.0000
  C   C53       1.0  0.39432  0.28580  0.23368  1.0000
  C  Sn26      1.0  0.38992  0.26054  0.31349  1.0000
  C  Sn27      1.0  0.34617  0.24829  0.31458  1.0000
  C   C54       1.0  0.30773  0.26156  0.23589  1.0000
  C  Sn28      1.0  0.31210  0.28683  0.15607  1.0000
  O  Te25      1.0  0.36106  0.32432  0.07595  1.0000
  O  Te26      1.0  0.42888  0.24767  0.39136  1.0000
  O  Te27      1.0  0.34099  0.22303  0.39370  1.0000
  O  Te28      1.0  0.27318  0.29970  0.07822  1.0000
  Mg  Mg13      1.0  0.40426  0.21350  0.48236  1.0000
  Mg  Mg14      1.0  0.37393  0.33695  0.98713  1.0000
  C  Sn29      1.0  0.64631  0.26443  0.13651  1.0000
  C   C55       1.0  0.68490  0.27615  0.22162  1.0000
  C  Sn30      1.0  0.68195  0.28734  0.34348  1.0000
  C  Sn31      1.0  0.63955  0.28679  0.38110  1.0000
  C   C56       1.0  0.60099  0.27507  0.29603  1.0000
  C  Sn32      1.0  0.60391  0.26388  0.17413  1.0000
  O  Te29      1.0  0.65005  0.25336  0.01517  1.0000
  O  Te30      1.0  0.72099  0.29895  0.42688  1.0000
  O  Te31      1.0  0.63584  0.29787  0.50256  1.0000
  O  Te32      1.0  0.56490  0.25226  0.09077  1.0000
  Mg  Mg15      1.0  0.69863  0.31139  0.58204  1.0000
  Mg  Mg16      1.0  0.66339  0.24291  0.93562  1.0000
  C  Sn33      1.0  0.41676  0.03579  0.31982  1.0000
  C   C57       1.0  0.44726  0.03135  0.23914  1.0000
  C  Sn34      1.0  0.45061  0.05375  0.14625  1.0000
  C  Sn35      1.0  0.42292  0.08116  0.13380  1.0000
  C   C58       1.0  0.39245  0.08559  0.21445  1.0000
  C  Sn36      1.0  0.38907  0.06320  0.30736  1.0000
  O  Te33      1.0  0.41399  0.01310  0.41200  1.0000
  O  Te34      1.0  0.48134  0.04879  0.06667  1.0000
  O  Te35      1.0  0.42572  0.10385  0.04151  1.0000
  O  Te36      1.0  0.35837  0.06816  0.38692  1.0000
  Mg  Mg17      1.0  0.54890  0.08960  0.95573  1.0000
  Mg  Mg18      1.0  0.36697  0.03047  0.49793  1.0000
  C  Sn37      1.0  0.57346  0.07013  0.14369  1.0000
  C   C59       1.0  0.60041  0.08489  0.25176  1.0000
  C  Sn38      1.0  0.60199  0.07302  0.37445  1.0000
  C  Sn39      1.0  0.57613  0.04583  0.38944  1.0000
  C   C60       1.0  0.54920  0.03109  0.28142  1.0000
  C  Sn40      1.0  0.54759  0.04294  0.15868  1.0000
  O  Te37      1.0  0.57239  0.08240  0.02195  1.0000
  O  Te38      1.0  0.62918  0.08818  0.48106  1.0000
  O  Te39      1.0  0.57722  0.03357  0.51131  1.0000
  O  Te40      1.0  0.52044  0.02779  0.05212  1.0000
  Mg  Mg19      1.0  0.61939  0.06252  0.62699  1.0000
  Mg  Mg20      1.0  0.60639  0.05653  0.90614  1.0000
  C  Sn41      1.0  0.96460  0.57863  0.21131  1.0000
  C   C61       1.0  0.96654  0.54777  0.25774  1.0000
  C  Sn42      1.0  0.92745  0.53310  0.28004  1.0000
  C  Sn43      1.0  0.88552  0.54961  0.25533  1.0000
  C   C62       1.0  0.88358  0.58044  0.20891  1.0000
  C  Sn44      1.0  0.92267  0.59513  0.18660  1.0000
  O  Te41      1.0  0.00411  0.59282  0.18971  1.0000
  O  Te42      1.0  0.93024  0.50224  0.32652  1.0000
  O  Te43      1.0  0.84599  0.53538  0.27698  1.0000
  O  Te44      1.0  0.91989  0.62597  0.14013  1.0000
  Mg  Mg21      1.0  0.86706  0.49300  0.34069  1.0000
  Mg  Mg22      1.0  0.98303  0.63523  0.12586  1.0000
  C  Sn45      1.0  0.10641  0.55713  0.38818  1.0000
  C   C63       1.0  0.12365  0.56873  0.28593  1.0000
  C  Sn46      1.0  0.09842  0.56588  0.15988  1.0000
  C  Sn47      1.0  0.05504  0.55115  0.13553  1.0000
  C   C64       1.0  0.03781  0.53957  0.23774  1.0000
  C  Sn48      1.0  0.06302  0.54241  0.36383  1.0000
  O  Te45      1.0  0.13222  0.56024  0.51342  1.0000
  O  Te46      1.0  0.11637  0.57764  0.05923  1.0000
  O  Te47      1.0  0.02923  0.54805  0.01016  1.0000
  O  Te48      1.0  0.04509  0.53066  0.46444  1.0000
  Mg  Mg23      1.0  0.14445  0.57092  0.90529  1.0000
  Mg  Mg24      1.0  0.09314  0.54049  0.61842  1.0000
  C  Sn49      1.0  0.55308  0.92954  0.36471  1.0000
  C   C65       1.0  0.54976  0.96063  0.32062  1.0000
  C  Sn50      1.0  0.57905  0.97163  0.24532  1.0000
  C  Sn51      1.0  0.61233  0.95112  0.21333  1.0000
  C   C66       1.0  0.61563  0.92005  0.25739  1.0000
  C  Sn52      1.0  0.58637  0.90903  0.33273  1.0000
  O  Te49      1.0  0.52345  0.91905  0.43986  1.0000
  O  Te50      1.0  0.57525  0.00281  0.20240  1.0000
  O  Te51      1.0  0.64197  0.96164  0.13812  1.0000
  O  Te52      1.0  0.59031  0.87787  0.37561  1.0000
  Mg  Mg25      1.0  0.62340  0.00609  0.10256  1.0000
  Mg  Mg26      1.0  0.54217  0.87456  0.47539  1.0000
  C  Sn53      1.0  0.43357  0.91688  0.15142  1.0000
  C   C67       1.0  0.40124  0.91366  0.22692  1.0000
  C  Sn54      1.0  0.39426  0.93812  0.30985  1.0000
  C  Sn55      1.0  0.42010  0.96639  0.31742  1.0000
  C   C68       1.0  0.45241  0.96960  0.24194  1.0000
  C  Sn56      1.0  0.45942  0.94515  0.15899  1.0000
  O  Te53      1.0  0.43999  0.89212  0.06917  1.0000
  O  Te54      1.0  0.36175  0.93435  0.38441  1.0000
  O  Te55      1.0  0.41366  0.99115  0.39976  1.0000
  O  Te56      1.0  0.49190  0.94891  0.08445  1.0000
  Mg  Mg27      1.0  0.36541  0.97479  0.48187  1.0000
  Mg  Mg28      1.0  0.56442  0.91160  0.98691  1.0000
  C  Sn57      1.0  0.04631  0.42761  0.34554  1.0000
  C   C69       1.0  0.04593  0.45927  0.30911  1.0000
  C  Sn58      1.0  0.07829  0.47052  0.24426  1.0000
  C  Sn59      1.0  0.11171  0.44970  0.21512  1.0000
  C   C70       1.0  0.11207  0.41806  0.25152  1.0000
  C  Sn60      1.0  0.07973  0.40678  0.31640  1.0000
  O  Te57      1.0  0.01363  0.41687  0.41029  1.0000
  O  Te58      1.0  0.07724  0.50227  0.20887  1.0000
  O  Te59      1.0  0.14440  0.46046  0.15032  1.0000
  O  Te60      1.0  0.08076  0.37505  0.35177  1.0000
  Mg  Mg29      1.0  0.12894  0.50570  0.12216  1.0000
  Mg  Mg30      1.0  0.02907  0.37159  0.43841  1.0000
  C  Sn61      1.0  0.94188  0.44693  0.36728  1.0000
  C   C71       1.0  0.96204  0.45782  0.26936  1.0000
  C  Sn62      1.0  0.94030  0.45350  0.14056  1.0000
  C  Sn63      1.0  0.89750  0.43800  0.10897  1.0000
  C   C72       1.0  0.87736  0.42713  0.20685  1.0000
  C  Sn64      1.0  0.89908  0.43143  0.33568  1.0000
  O  Te61      1.0  0.96423  0.45150  0.49538  1.0000
  O  Te62      1.0  0.96114  0.46458  0.04435  1.0000
  O  Te63      1.0  0.95134  0.43654  0.98074  1.0000
  O  Te64      1.0  0.87827  0.42036  0.43186  1.0000
  Mg  Mg31      1.0  0.99343  0.45585  0.88404  1.0000
  Mg  Mg32      1.0  0.92210  0.43220  0.59219  1.0000
  C  Sn65      1.0  0.32251  0.19176  0.11916  1.0000
  C   C73       1.0  0.32689  0.16226  0.17832  1.0000
  C  Sn66      1.0  0.29524  0.15239  0.24829  1.0000
  C  Sn67      1.0  0.25844  0.17240  0.25929  1.0000
  C   C74       1.0  0.25407  0.20188  0.20014  1.0000
  C  Sn68      1.0  0.28570  0.21177  0.13017  1.0000
  O  Te65      1.0  0.35454  0.20114  0.04969  1.0000
  O  Te66      1.0  0.30034  0.12280  0.30662  1.0000
  O  Te67      1.0  0.22639  0.16300  0.32884  1.0000
  O  Te68      1.0  0.28061  0.24134  0.07184  1.0000
  Mg  Mg33      1.0  0.24791  0.12057  0.39090  1.0000
  Mg  Mg34      1.0  0.40918  0.24668  0.98749  1.0000
  C  Sn69      1.0  0.67366  0.19426  0.36927  1.0000
  C   C75       1.0  0.67216  0.16384  0.31565  1.0000
  C  Sn70      1.0  0.70679  0.15341  0.25668  1.0000
  C  Sn71      1.0  0.74371  0.17381  0.25126  1.0000
  C   C76       1.0  0.74520  0.20421  0.30488  1.0000
  C  Sn72      1.0  0.71058  0.21466  0.36385  1.0000
  O  Te69      1.0  0.63867  0.20418  0.42776  1.0000
  O  Te70      1.0  0.70454  0.12290  0.20371  1.0000
  O  Te71      1.0  0.77871  0.16386  0.19271  1.0000
  O  Te72      1.0  0.71282  0.24514  0.41682  1.0000
  Mg  Mg35      1.0  0.76040  0.12022  0.13441  1.0000
  Mg  Mg36      1.0  0.65700  0.24785  0.48620  1.0000
  C  Sn73      1.0  0.81559  0.69059  0.09505  1.0000
  C   C77       1.0  0.82681  0.66391  0.17149  1.0000
  C  Sn74      1.0  0.80463  0.65780  0.27110  1.0000
  C  Sn75      1.0  0.77050  0.67877  0.29477  1.0000
  C   C78       1.0  0.75929  0.70542  0.21834  1.0000
  C  Sn76      1.0  0.78146  0.71156  0.11871  1.0000
  O  Te73      1.0  0.91438  0.69934  0.99598  1.0000
  O  Te74      1.0  0.81644  0.63098  0.34626  1.0000
  O  Te75      1.0  0.74788  0.67310  0.39394  1.0000
  O  Te76      1.0  0.76966  0.73835  0.04357  1.0000
  Mg  Mg37      1.0  0.77594  0.63344  0.46988  1.0000
  Mg  Mg38      1.0  0.88629  0.73901  0.91989  1.0000
  C  Sn77      1.0  0.22946  0.67262  0.20006  1.0000
  C   C79       1.0  0.23051  0.70231  0.25975  1.0000
  C  Sn78      1.0  0.21112  0.70663  0.36661  1.0000
  C  Sn79      1.0  0.19026  0.68073  0.41489  1.0000
  C   C80       1.0  0.18922  0.65105  0.35523  1.0000
  C  Sn80      1.0  0.20860  0.64671  0.24834  1.0000
  O  Te77      1.0  0.24906  0.66884  0.09336  1.0000
  O  Te78      1.0  0.21258  0.73655  0.42463  1.0000
  O  Te79      1.0  0.17066  0.68453  0.52168  1.0000
  O  Te80      1.0  0.20716  0.61682  0.19035  1.0000
  Mg  Mg39      1.0  0.18124  0.72983  0.56757  1.0000
  Mg  Mg40      1.0  0.23851  0.62351  0.04745  1.0000
  C  Sn81      1.0  0.69916  0.79716  0.37900  1.0000
  C   C81       1.0  0.72300  0.79325  0.28092  1.0000
  C  Sn82      1.0  0.73463  0.81947  0.21612  1.0000
  C  Sn83      1.0  0.72219  0.85026  0.25011  1.0000
  C   C82       1.0  0.69838  0.85416  0.34815  1.0000
  C  Sn84      1.0  0.68673  0.82795  0.41299  1.0000
  O  Te81      1.0  0.68790  0.77061  0.44249  1.0000
  O  Te82      1.0  0.75845  0.81497  0.11836  1.0000
  O  Te83      1.0  0.73348  0.87682  0.18652  1.0000
  O  Te84      1.0  0.66293  0.83245  0.51071  1.0000
  Mg  Mg41      1.0  0.76608  0.85853  0.06012  1.0000
  Mg  Mg42      1.0  0.65530  0.78890  0.56906  1.0000
  C  Sn85      1.0  0.30541  0.79367  0.12450  1.0000
  C   C83       1.0  0.28168  0.79022  0.22274  1.0000
  C  Sn86      1.0  0.27096  0.81670  0.29005  1.0000
  C  Sn87      1.0  0.28421  0.84727  0.25845  1.0000
  C   C84       1.0  0.30792  0.85071  0.16025  1.0000
  C  Sn88      1.0  0.31866  0.82424  0.09290  1.0000
  O  Te85      1.0  0.31576  0.76687  0.05848  1.0000
  O  Te86      1.0  0.24722  0.81266  0.38791  1.0000
  O  Te87      1.0  0.27384  0.87409  0.32457  1.0000
  O  Te88      1.0  0.41855  0.83138  0.99508  1.0000
  Mg  Mg43      1.0  0.24099  0.85642  0.45007  1.0000
  Mg  Mg44      1.0  0.42477  0.78764  0.93282  1.0000
  C  Sn89      1.0  0.19596  0.29415  0.37937  1.0000
  C   C85       1.0  0.22043  0.29044  0.28261  1.0000
  C  Sn90      1.0  0.23100  0.31668  0.21606  1.0000
  C  Sn91      1.0  0.21686  0.34727  0.24692  1.0000
  C   C86       1.0  0.19241  0.35097  0.34364  1.0000
  C  Sn92      1.0  0.18181  0.32474  0.41023  1.0000
  O  Te89      1.0  0.18576  0.26759  0.44466  1.0000
  O  Te90      1.0  0.25549  0.31238  0.11967  1.0000
  O  Te91      1.0  0.22707  0.37384  0.18153  1.0000
  O  Te92      1.0  0.15735  0.32903  0.50658  1.0000
  Mg  Mg45      1.0  0.26116  0.35588  0.05803  1.0000
  Mg  Mg46      1.0  0.15168  0.28555  0.56832  1.0000
  C  Sn93      1.0  0.75826  0.33356  0.25219  1.0000
  C   C87       1.0  0.75519  0.30349  0.19496  1.0000
  C  Sn94      1.0  0.78745  0.29357  0.12636  1.0000
  C  Sn95      1.0  0.82354  0.31412  0.11478  1.0000
  C   C88       1.0  0.82659  0.34417  0.17201  1.0000
  C  Sn96      1.0  0.79435  0.35411  0.24061  1.0000
  O  Te93      1.0  0.72564  0.34299  0.32032  1.0000
  O  Te94      1.0  0.78366  0.26340  0.06995  1.0000
  O  Te95      1.0  0.85617  0.30467  0.04658  1.0000
  O  Te96      1.0  0.79812  0.38426  0.29702  1.0000
  Mg  Mg47      1.0  0.91263  0.26446  0.98696  1.0000
  Mg  Mg48      1.0  0.74536  0.38632  0.38008  1.0000
  C  Sn97      1.0  0.14576  0.25022  0.67619  1.0000
  C   C89       1.0  0.18449  0.24079  0.76531  1.0000
  C  Sn98      1.0  0.18141  0.21758  0.85526  1.0000
  C  Sn99      1.0  0.13873  0.20348  0.85611  1.0000
  C   C90       1.0  0.10004  0.21292  0.76701  1.0000
  C  Sn100     1.0  0.10308  0.23613  0.67703  1.0000
  O  Te97      1.0  0.14963  0.27347  0.58712  1.0000
  O  Te98      1.0  0.22060  0.20854  0.94344  1.0000
  O  Te99      1.0  0.13489  0.18022  0.94528  1.0000
  O  Te100     1.0  0.06393  0.24516  0.58889  1.0000
  Mg  Mg49      1.0  0.12179  0.17277  0.04585  1.0000
  Mg  Mg50      1.0  0.08653  0.27782  0.48639  1.0000
  C  Sn101     1.0  0.85164  0.25245  0.81737  1.0000
  C   C91       1.0  0.81290  0.23967  0.73631  1.0000
  C  Sn102     1.0  0.81695  0.21582  0.64756  1.0000
  C  Sn103     1.0  0.86061  0.20449  0.63972  1.0000
  C   C92       1.0  0.89932  0.21726  0.72076  1.0000
  C  Sn104     1.0  0.89531  0.24112  0.80953  1.0000
  O  Te101     1.0  0.84679  0.27628  0.90538  1.0000
  O  Te102     1.0  0.77773  0.20341  0.56751  1.0000
  O  Te103     1.0  0.86543  0.18064  0.55162  1.0000
  O  Te104     1.0  0.93449  0.25352  0.88956  1.0000
  Mg  Mg51      1.0  0.80191  0.17126  0.46333  1.0000
  Mg  Mg52      1.0  0.91035  0.28566  0.99382  1.0000
  C  Sn105     1.0  0.62050  0.73027  0.62771  1.0000
  C   C93       1.0  0.60207  0.71719  0.72514  1.0000
  C  Sn106     1.0  0.62916  0.71294  0.84777  1.0000
  C  Sn107     1.0  0.67564  0.72197  0.87361  1.0000
  C   C94       1.0  0.69404  0.73505  0.77623  1.0000
  C  Sn108     1.0  0.66697  0.73930  0.65355  1.0000
  O  Te105     1.0  0.59278  0.73430  0.50582  1.0000
  O  Te106     1.0  0.60998  0.69980  0.94360  1.0000
  O  Te107     1.0  0.70335  0.71792  0.99562  1.0000
  O  Te108     1.0  0.68613  0.75244  0.55777  1.0000
  Mg  Mg53      1.0  0.58539  0.69594  0.09436  1.0000
  Mg  Mg54      1.0  0.63458  0.75322  0.40700  1.0000
  C  Sn109     1.0  0.35276  0.71400  0.60863  1.0000
  C   C95       1.0  0.39177  0.72358  0.69757  1.0000
  C  Sn110     1.0  0.38879  0.73387  0.82059  1.0000
  C  Sn111     1.0  0.34592  0.73459  0.85548  1.0000
  C   C96       1.0  0.30694  0.72502  0.76658  1.0000
  C  Sn112     1.0  0.30989  0.71472  0.64352  1.0000
  O  Te109     1.0  0.35654  0.70380  0.48620  1.0000
  O  Te110     1.0  0.42827  0.74334  0.90784  1.0000
  O  Te111     1.0  0.34217  0.74481  0.97803  1.0000
  O  Te112     1.0  0.27044  0.70526  0.55631  1.0000
  Mg  Mg55      1.0  0.32948  0.75223  0.06308  1.0000
  Mg  Mg56      1.0  0.29302  0.69324  0.40107  1.0000
  C  Sn113     1.0  0.85612  0.76562  0.86844  1.0000
  C   C97       1.0  0.81682  0.77622  0.78464  1.0000
  C  Sn114     1.0  0.81801  0.78453  0.65890  1.0000
  C  Sn115     1.0  0.85934  0.78217  0.61597  1.0000
  C   C98       1.0  0.89860  0.77157  0.69974  1.0000
  C  Sn116     1.0  0.89744  0.76326  0.82552  1.0000
  O  Te113     1.0  0.85413  0.75744  0.99373  1.0000
  O  Te114     1.0  0.77829  0.79508  0.57690  1.0000
  O  Te115     1.0  0.86129  0.79036  0.49057  1.0000
  O  Te116     1.0  0.93714  0.75271  0.90748  1.0000
  Mg  Mg57      1.0  0.79818  0.80344  0.41495  1.0000
  Mg  Mg58      1.0  0.84111  0.74123  0.06941  1.0000
  C  Sn117     1.0  0.11836  0.75498  0.66925  1.0000
  C   C99       1.0  0.10241  0.76910  0.77031  1.0000
  C  Sn118     1.0  0.13173  0.78683  0.86467  1.0000
  C  Sn119     1.0  0.17796  0.79054  0.85785  1.0000
  C   C100      1.0  0.19389  0.77643  0.75683  1.0000
  C  Sn120     1.0  0.16459  0.75869  0.66243  1.0000
  O  Te117     1.0  0.08844  0.73736  0.57597  1.0000
  O  Te118     1.0  0.11500  0.80072  0.96480  1.0000
  O  Te119     1.0  0.20788  0.80818  0.95124  1.0000
  O  Te120     1.0  0.18130  0.74481  0.56234  1.0000
  Mg  Mg59      1.0  0.09283  0.81941  0.06879  1.0000
  Mg  Mg60      1.0  0.12732  0.72303  0.45827  1.0000
  C  Sn121     1.0  0.32500  0.27839  0.61171  1.0000
  C   C101      1.0  0.30883  0.26584  0.71415  1.0000
  C  Sn122     1.0  0.33854  0.26046  0.83199  1.0000
  C  Sn123     1.0  0.38539  0.26780  0.84781  1.0000
  C   C102      1.0  0.40154  0.28036  0.74542  1.0000
  C  Sn124     1.0  0.37186  0.28574  0.62753  1.0000
  O  Te121     1.0  0.29469  0.28358  0.49476  1.0000
  O  Te122     1.0  0.32158  0.24788  0.93298  1.0000
  O  Te123     1.0  0.41571  0.26261  0.96488  1.0000
  O  Te124     1.0  0.38880  0.29832  0.52658  1.0000
  Mg  Mg61      1.0  0.30013  0.24198  0.07380  1.0000
  Mg  Mg62      1.0  0.33410  0.30114  0.38575  1.0000
  C  Sn125     1.0  0.64539  0.29704  0.86488  1.0000
  C   C103      1.0  0.60594  0.28926  0.77403  1.0000
  C  Sn126     1.0  0.60762  0.26766  0.67491  1.0000
  C  Sn127     1.0  0.64960  0.25351  0.66645  1.0000
  C   C104      1.0  0.68902  0.26128  0.75728  1.0000
  C  Sn128     1.0  0.68737  0.28289  0.85643  1.0000
  O  Te125     1.0  0.64291  0.31870  0.96317  1.0000
  O  Te126     1.0  0.56773  0.26026  0.58518  1.0000
  O  Te127     1.0  0.65205  0.23183  0.56806  1.0000
  O  Te128     1.0  0.72722  0.29028  0.94612  1.0000
  Mg  Mg63      1.0  0.58847  0.22939  0.46895  1.0000
  Mg  Mg64      1.0  0.63035  0.31804  0.06243  1.0000
  C  Sn129     1.0  0.45210  0.07100  0.66222  1.0000
  C   C105      1.0  0.46064  0.04537  0.74549  1.0000
  C  Sn130     1.0  0.42742  0.03496  0.80904  1.0000
  C  Sn131     1.0  0.38476  0.05049  0.78888  1.0000
  C   C106      1.0  0.37623  0.07611  0.70564  1.0000
  C  Sn132     1.0  0.40944  0.08653  0.64206  1.0000
  O  Te129     1.0  0.48580  0.08100  0.59970  1.0000
  O  Te130     1.0  0.43676  0.00929  0.89186  1.0000
  O  Te131     1.0  0.35105  0.04047  0.85149  1.0000
  O  Te132     1.0  0.40012  0.11218  0.55927  1.0000
  Mg  Mg65      1.0  0.37992  0.00444  0.95489  1.0000
  Mg  Mg66      1.0  0.45691  0.11704  0.49614  1.0000
  C  Sn133     1.0  0.53802  0.07689  0.79906  1.0000
  C   C107      1.0  0.53542  0.04553  0.75501  1.0000
  C  Sn134     1.0  0.57409  0.03019  0.73238  1.0000
  C  Sn135     1.0  0.61624  0.04653  0.75429  1.0000
  C   C108      1.0  0.61883  0.07787  0.79833  1.0000
  C  Sn136     1.0  0.58017  0.09323  0.82098  1.0000
  O  Te133     1.0  0.49893  0.09175  0.82105  1.0000
  O  Te134     1.0  0.57048  0.99883  0.68831  1.0000
  O  Te135     1.0  0.65535  0.03164  0.73226  1.0000
  O  Te136     1.0  0.58360  0.12457  0.86503  1.0000
  Mg  Mg67      1.0  0.63327  0.98875  0.67251  1.0000
  Mg  Mg68      1.0  0.52084  0.13466  0.88093  1.0000
  C  Sn137     1.0  0.93141  0.55864  0.62574  1.0000
  C   C109      1.0  0.95609  0.54273  0.73252  1.0000
  C  Sn138     1.0  0.93986  0.54125  0.84566  1.0000
  C  Sn139     1.0  0.89806  0.55594  0.85221  1.0000
  C   C110      1.0  0.87340  0.57183  0.74548  1.0000
  C  Sn140     1.0  0.88961  0.57334  0.63229  1.0000
  O  Te137     1.0  0.94828  0.55982  0.51362  1.0000
  O  Te138     1.0  0.96515  0.52522  0.95117  1.0000
  O  Te139     1.0  0.88120  0.55475  0.96446  1.0000
  O  Te140     1.0  0.86434  0.58935  0.52683  1.0000
  Mg  Mg69      1.0  0.85180  0.52701  0.08247  1.0000
  Mg  Mg70      1.0  0.90147  0.58445  0.39547  1.0000
  C  Sn141     1.0  0.06324  0.58653  0.84631  1.0000
  C   C111      1.0  0.10561  0.58185  0.81547  1.0000
  C  Sn142     1.0  0.11382  0.55473  0.74784  1.0000
  C  Sn143     1.0  0.07895  0.53181  0.71018  1.0000
  C   C112      1.0  0.03662  0.53649  0.74099  1.0000
  C  Sn144     1.0  0.02838  0.56361  0.80865  1.0000
  O  Te141     1.0  0.05579  0.61382  0.91398  1.0000
  O  Te142     1.0  0.15645  0.55057  0.71815  1.0000
  O  Te143     1.0  0.08644  0.50450  0.64247  1.0000
  O  Te144     1.0  0.98577  0.56777  0.83832  1.0000
  Mg  Mg71      1.0  0.15012  0.50952  0.62448  1.0000
  Mg  Mg72      1.0  0.99206  0.60882  0.93192  1.0000
  C  Sn145     1.0  0.58295  0.95559  0.89935  1.0000
  C   C113      1.0  0.55526  0.96893  0.79072  1.0000
  C  Sn146     1.0  0.55348  0.95575  0.66883  1.0000
  C  Sn147     1.0  0.57990  0.92865  0.65524  1.0000
  C   C114      1.0  0.60756  0.91532  0.76382  1.0000
  C  Sn148     1.0  0.60937  0.92849  0.88575  1.0000
  O  Te145     1.0  0.50802  0.96605  0.02026  1.0000
  O  Te146     1.0  0.52555  0.96952  0.56165  1.0000
  O  Te147     1.0  0.57864  0.91509  0.53420  1.0000
  O  Te148     1.0  0.63727  0.91473  0.99289  1.0000
  Mg  Mg73      1.0  0.53538  0.94240  0.41726  1.0000
  Mg  Mg74      1.0  0.55128  0.93872  0.13732  1.0000
  C  Sn149     1.0  0.43309  0.95097  0.86167  1.0000
  C   C115      1.0  0.46190  0.95595  0.77695  1.0000
  C  Sn150     1.0  0.45001  0.94469  0.65030  1.0000
  C  Sn151     1.0  0.40844  0.92812  0.60739  1.0000
  C   C116      1.0  0.37966  0.92316  0.69208  1.0000
  C  Sn152     1.0  0.39153  0.93441  0.81877  1.0000
  O  Te149     1.0  0.44566  0.96244  0.98786  1.0000
  O  Te150     1.0  0.47937  0.94994  0.56738  1.0000
  O  Te151     1.0  0.39589  0.91665  0.48109  1.0000
  O  Te152     1.0  0.36219  0.92917  0.90164  1.0000
  Mg  Mg75      1.0  0.44722  0.92974  0.40442  1.0000
  Mg  Mg76      1.0  0.31812  0.94627  0.06460  1.0000
  C  Sn153     1.0  0.08322  0.42901  0.88355  1.0000
  C   C117      1.0  0.10240  0.41781  0.78323  1.0000
  C  Sn154     1.0  0.09331  0.43287  0.66448  1.0000
  C  Sn155     1.0  0.06447  0.45971  0.64563  1.0000
  C   C118      1.0  0.04532  0.47090  0.74592  1.0000
  C  Sn156     1.0  0.05439  0.45585  0.86470  1.0000
  O  Te153     1.0  0.01661  0.41048  0.00146  1.0000
  O  Te154     1.0  0.11286  0.42122  0.56561  1.0000
  O  Te155     1.0  0.05492  0.47513  0.52760  1.0000
  O  Te156     1.0  0.03486  0.46748  0.96353  1.0000
  Mg  Mg77      1.0  0.08962  0.45036  0.42244  1.0000
  Mg  Mg78      1.0  0.98192  0.43527  0.10676  1.0000
  C  Sn157     1.0  0.93772  0.41053  0.69586  1.0000
  C   C119      1.0  0.89755  0.41345  0.74065  1.0000
  C  Sn158     1.0  0.88289  0.44313  0.77393  1.0000
  C  Sn159     1.0  0.90890  0.47047  0.76213  1.0000
  C   C120      1.0  0.94904  0.46755  0.71734  1.0000
  C  Sn160     1.0  0.96373  0.43788  0.68405  1.0000
  O  Te157     1.0  0.95173  0.38063  0.66313  1.0000
  O  Te158     1.0  0.84262  0.44545  0.81852  1.0000
  O  Te159     1.0  0.89485  0.50039  0.79490  1.0000
  O  Te160     1.0  0.00397  0.43555  0.63947  1.0000
  Mg  Mg79      1.0  0.83764  0.49139  0.85095  1.0000
  Mg  Mg80      1.0  0.00897  0.38962  0.60695  1.0000
  C  Sn161     1.0  0.32079  0.19247  0.62036  1.0000
  C   C121      1.0  0.32430  0.16274  0.67756  1.0000
  C  Sn162     1.0  0.29351  0.15358  0.75145  1.0000
  C  Sn163     1.0  0.25846  0.17456  0.76846  1.0000
  C   C122      1.0  0.25496  0.20426  0.71127  1.0000
  C  Sn164     1.0  0.28574  0.21345  0.63738  1.0000
  O  Te161     1.0  0.35195  0.20113  0.54689  1.0000
  O  Te162     1.0  0.29771  0.12374  0.80771  1.0000
  O  Te163     1.0  0.22729  0.16587  0.84201  1.0000
  O  Te164     1.0  0.28155  0.24326  0.58112  1.0000
  Mg  Mg81      1.0  0.24703  0.12275  0.89914  1.0000
  Mg  Mg82      1.0  0.33219  0.24427  0.48962  1.0000
  C  Sn165     1.0  0.72412  0.15324  0.74059  1.0000
  C   C123      1.0  0.69836  0.15016  0.83436  1.0000
  C  Sn166     1.0  0.68703  0.17683  0.89949  1.0000
  C  Sn167     1.0  0.70173  0.20721  0.87025  1.0000
  C   C124      1.0  0.72746  0.21027  0.77652  1.0000
  C  Sn168     1.0  0.73881  0.18362  0.71135  1.0000
  O  Te165     1.0  0.73505  0.12626  0.67668  1.0000
  O  Te166     1.0  0.66126  0.17316  0.99288  1.0000
  O  Te167     1.0  0.69077  0.23420  0.93427  1.0000
  O  Te168     1.0  0.76456  0.18728  0.61800  1.0000
  Mg  Mg83      1.0  0.57881  0.21394  0.05364  1.0000
  Mg  Mg84      1.0  0.77084  0.14341  0.55714  1.0000
  C  Sn169     1.0  0.76889  0.67266  0.79490  1.0000
  C   C125      1.0  0.77139  0.70287  0.74498  1.0000
  C  Sn170     1.0  0.79515  0.70781  0.64782  1.0000
  C  Sn171     1.0  0.81685  0.68202  0.59947  1.0000
  C   C126      1.0  0.81434  0.65184  0.64937  1.0000
  C  Sn172     1.0  0.79059  0.64687  0.74656  1.0000
  O  Te169     1.0  0.74495  0.66827  0.89201  1.0000
  O  Te170     1.0  0.79718  0.73822  0.59946  1.0000
  O  Te171     1.0  0.84080  0.68644  0.50229  1.0000
  O  Te172     1.0  0.78855  0.61648  0.79489  1.0000
  Mg  Mg85      1.0  0.83386  0.73226  0.46749  1.0000
  Mg  Mg86      1.0  0.75186  0.62241  0.92681  1.0000
  C  Sn173     1.0  0.18006  0.69042  0.89085  1.0000
  C   C127      1.0  0.17326  0.66152  0.82434  1.0000
  C  Sn174     1.0  0.20046  0.65300  0.73848  1.0000
  C  Sn175     1.0  0.23520  0.67380  0.71874  1.0000
  C   C128      1.0  0.24200  0.70268  0.78525  1.0000
  C  Sn176     1.0  0.21481  0.71122  0.87112  1.0000
  O  Te173     1.0  0.15247  0.69844  0.97623  1.0000
  O  Te174     1.0  0.19300  0.62399  0.67305  1.0000
  O  Te175     1.0  0.26280  0.66576  0.63328  1.0000
  O  Te176     1.0  0.22226  0.74021  0.93654  1.0000
  Mg  Mg87      1.0  0.23946  0.62366  0.56681  1.0000
  Mg  Mg88      1.0  0.09966  0.73745  0.04284  1.0000
  C  Sn177     1.0  0.74571  0.83310  0.76820  1.0000
  C   C129      1.0  0.74569  0.80273  0.81847  1.0000
  C  Sn178     1.0  0.70986  0.79278  0.87282  1.0000
  C  Sn179     1.0  0.67327  0.81362  0.87694  1.0000
  C   C130      1.0  0.67330  0.84397  0.82667  1.0000
  C  Sn180     1.0  0.70913  0.85394  0.77232  1.0000
  O  Te177     1.0  0.78189  0.84255  0.71431  1.0000
  O  Te178     1.0  0.71059  0.76230  0.92250  1.0000
  O  Te179     1.0  0.63708  0.80415  0.93088  1.0000
  O  Te180     1.0  0.70840  0.88440  0.72264  1.0000
  Mg  Mg89      1.0  0.65352  0.76036  0.98597  1.0000
  Mg  Mg90      1.0  0.76544  0.88636  0.65909  1.0000
  C  Sn181     1.0  0.25555  0.83178  0.74284  1.0000
  C   C131      1.0  0.25382  0.80151  0.68779  1.0000
  C  Sn182     1.0  0.28848  0.79111  0.62889  1.0000
  C  Sn183     1.0  0.32567  0.81139  0.62500  1.0000
  C   C132      1.0  0.32740  0.84164  0.68005  1.0000
  C  Sn184     1.0  0.29274  0.85206  0.73895  1.0000
  O  Te181     1.0  0.22053  0.84168  0.80123  1.0000
  O  Te182     1.0  0.28599  0.76075  0.57447  1.0000
  O  Te183     1.0  0.36071  0.80146  0.56654  1.0000
  O  Te184     1.0  0.29523  0.88240  0.79336  1.0000
  Mg  Mg91      1.0  0.34201  0.75804  0.50593  1.0000
  Mg  Mg92      1.0  0.23924  0.88512  0.86198  1.0000
  C  Sn185     1.0  0.19246  0.31692  0.92959  1.0000
  C   C133      1.0  0.19160  0.34668  0.87349  1.0000
  C  Sn186     1.0  0.21044  0.35105  0.76604  1.0000
  C  Sn187     1.0  0.23055  0.32513  0.71349  1.0000
  C   C134      1.0  0.23140  0.29538  0.76956  1.0000
  C  Sn188     1.0  0.21257  0.29099  0.87704  1.0000
  O  Te185     1.0  0.09725  0.30999  0.03696  1.0000
  O  Te186     1.0  0.20919  0.38104  0.71166  1.0000
  O  Te187     1.0  0.24960  0.32898  0.60604  1.0000
  O  Te188     1.0  0.21381  0.26103  0.93140  1.0000
  Mg  Mg93      1.0  0.23957  0.37436  0.56613  1.0000
  Mg  Mg94      1.0  0.10725  0.26457  0.07688  1.0000
  C  Sn189     1.0  0.79516  0.31507  0.56147  1.0000
  C   C135      1.0  0.79950  0.34443  0.62471  1.0000
  C  Sn190     1.0  0.78751  0.34795  0.74369  1.0000
  C  Sn191     1.0  0.77086  0.32158  0.80069  1.0000
  C   C136      1.0  0.76653  0.29224  0.73747  1.0000
  C  Sn192     1.0  0.77850  0.28869  0.61847  1.0000
  O  Te189     1.0  0.80735  0.31209  0.44260  1.0000
  O  Te190     1.0  0.79214  0.37754  0.80506  1.0000
  O  Te191     1.0  0.75866  0.32458  0.91965  1.0000
  O  Te192     1.0  0.77389  0.25913  0.55712  1.0000
  Mg  Mg95      1.0  0.77108  0.36971  0.96565  1.0000
  Mg  Mg96      1.0  0.79496  0.26693  0.39657  1.0000
