data_image0
_chemical_formula_structural       N8C8H8C8H8C4N8C8H8C8H8C4SnCSn2CSnTe4Mg2SnCSn2CSnTe4Mg2SnCSn2CSnTe4Mg2SnCSn2CSnTe4Mg2SnCSn2CSnTe4Mg2SnCSn2CSnTe4Mg2SnCSn2CSnTe4Mg2SnCSn2CSnTe4Mg2SnCSn2CSnTe4Mg2SnCSn2CSnTe4Mg2SnCSn2CSnTe4Mg2SnCSn2CSnTe4Mg2SnCSn2CSnTe4Mg2SnCSn2CSnTe4Mg2SnCSn2CSnTe4Mg2SnCSn2CSnTe4Mg2SnCSn2CSnTe4Mg2SnCSn2CSnTe4Mg2SnCSn2CSnTe4Mg2SnCSn2CSnTe4Mg2SnCSn2CSnTe4Mg2SnCSn2CSnTe4Mg2SnCSn2CSnTe4Mg2SnCSn2CSnTe4Mg2SnCSn2CSnTe4Mg2SnCSn2CSnTe4Mg2SnCSn2CSnTe4Mg2SnCSn2CSnTe4Mg2SnCSn2CSnTe4Mg2SnCSn2CSnTe4Mg2SnCSn2CSnTe4Mg2SnCSn2CSnTe4Mg2SnCSn2CSnTe4Mg2SnCSn2CSnTe4Mg2SnCSn2CSnTe4Mg2SnCSn2CSnTe4Mg2SnCSn2CSnTe4Mg2SnCSn2CSnTe4Mg2SnCSn2CSnTe4Mg2SnCSn2CSnTe4Mg2SnCSn2CSnTe4Mg2SnCSn2CSnTe4Mg2SnCSn2CSnTe4Mg2SnCSn2CSnTe4Mg2SnCSn2CSnTe4Mg2SnCSn2CSnTe4Mg2SnCSn2CSnTe4Mg2SnCSn2CSnTe4Mg2
_chemical_formula_sum              "N16 C136 H32 Sn192 Te192 Mg96"
_cell_length_a       26.9322
_cell_length_b       43.7009
_cell_length_c       10.1475
_cell_angle_alpha    87.5091
_cell_angle_beta     114.512
_cell_angle_gamma    90.1589

_symmetry_space_group_name_H-M    'P1'
_space_group_IT_number       1

loop_
  _space_group_symop_operation_xyz
  'x, y, z'

loop_
  _atom_site_type_symbol
  _atom_site_label
  _atom_site_symmetry_multiplicity
  _atom_site_fract_x
  _atom_site_fract_y
  _atom_site_fract_z
  _atom_site_occupancy
  N   N1        1.0  0.32681  0.09825  0.19268  1.0000
  N   N2        1.0  0.66473  0.10580  0.32752  1.0000
  N   N3        1.0  0.83347  0.60473  0.17991  1.0000
  N   N4        1.0  0.17124  0.60035  0.31887  1.0000
  N   N5        1.0  0.67160  0.90220  0.30335  1.0000
  N   N6        1.0  0.33496  0.89596  0.17419  1.0000
  N   N7        1.0  0.16682  0.39629  0.31302  1.0000
  N   N8        1.0  0.82824  0.40329  0.18486  1.0000
  C   C1        1.0  0.32914  0.12459  0.13262  1.0000
  C   C2        1.0  0.66311  0.13148  0.38476  1.0000
  C   C3        1.0  0.82965  0.63112  0.11319  1.0000
  C   C4        1.0  0.17052  0.62447  0.38738  1.0000
  C   C5        1.0  0.66710  0.87617  0.36261  1.0000
  C   C6        1.0  0.33393  0.87070  0.11114  1.0000
  C   C7        1.0  0.17048  0.37027  0.38275  1.0000
  C   C8        1.0  0.83263  0.37796  0.12906  1.0000
  H   H1        1.0  0.35729  0.12854  0.08024  1.0000
  H   H2        1.0  0.63586  0.13500  0.43921  1.0000
  H   H3        1.0  0.85008  0.63547  0.04025  1.0000
  H   H4        1.0  0.14369  0.62651  0.44420  1.0000
  H   H5        1.0  0.63742  0.87303  0.41074  1.0000
  H   H6        1.0  0.35842  0.86757  0.04856  1.0000
  H   H7        1.0  0.15029  0.36655  0.45666  1.0000
  H   H8        1.0  0.86327  0.37498  0.08480  1.0000
  C   C9        1.0  0.26212  0.26124  0.26127  1.0000
  C   C10       1.0  0.73347  0.26660  0.22213  1.0000
  C   C11       1.0  0.76452  0.76466  0.28067  1.0000
  C   C12       1.0  0.23614  0.76198  0.23619  1.0000
  C   C13       1.0  0.73536  0.73815  0.24295  1.0000
  C   C14       1.0  0.26760  0.73567  0.28354  1.0000
  C   C15       1.0  0.23180  0.23508  0.22342  1.0000
  C   C16       1.0  0.76432  0.24002  0.27069  1.0000
  H   H9        1.0  0.02477  0.77136  0.15323  1.0000
  H   H10       1.0  0.97228  0.76291  0.32776  1.0000
  H   H11       1.0  0.52397  0.26857  0.16016  1.0000
  H   H12       1.0  0.47291  0.26958  0.33800  1.0000
  H   H13       1.0  0.97525  0.23331  0.34667  1.0000
  H   H14       1.0  0.02219  0.23291  0.16216  1.0000
  H   H15       1.0  0.47705  0.73636  0.34364  1.0000
  H   H16       1.0  0.52434  0.72396  0.15367  1.0000
  C   C17       1.0  0.00007  0.48512  0.24757  1.0000
  C   C18       1.0  0.50071  0.98503  0.24087  1.0000
  C   C19       1.0  0.00150  0.51663  0.24782  1.0000
  C   C20       1.0  0.49727  0.01653  0.23886  1.0000
  N   N9        1.0  0.33557  0.10343  0.68191  1.0000
  N   N10       1.0  0.67298  0.09761  0.81265  1.0000
  N   N11       1.0  0.82559  0.59548  0.68842  1.0000
  N   N12       1.0  0.16552  0.60465  0.83195  1.0000
  N   N13       1.0  0.66466  0.89270  0.81938  1.0000
  N   N14       1.0  0.32889  0.90104  0.68789  1.0000
  N   N15       1.0  0.17206  0.40023  0.80304  1.0000
  N   N16       1.0  0.83647  0.39464  0.67105  1.0000
  C   C21       1.0  0.33473  0.13026  0.62170  1.0000
  C   C22       1.0  0.67226  0.12163  0.88171  1.0000
  C   C23       1.0  0.83323  0.62241  0.64288  1.0000
  C   C24       1.0  0.16738  0.62969  0.89740  1.0000
  C   C25       1.0  0.66794  0.86658  0.88808  1.0000
  C   C26       1.0  0.33036  0.87615  0.62506  1.0000
  C   C27       1.0  0.16979  0.37453  0.86831  1.0000
  C   C28       1.0  0.83388  0.36937  0.60689  1.0000
  H   H17       1.0  0.35916  0.13501  0.55926  1.0000
  H   H18       1.0  0.64595  0.12332  0.94021  1.0000
  H   H19       1.0  0.86616  0.62643  0.60695  1.0000
  H   H20       1.0  0.14413  0.63270  0.96333  1.0000
  H   H21       1.0  0.64682  0.86246  0.95954  1.0000
  H   H22       1.0  0.35836  0.87324  0.57236  1.0000
  H   H23       1.0  0.14316  0.37166  0.92588  1.0000
  H   H24       1.0  0.85618  0.36611  0.53875  1.0000
  C   C29       1.0  0.26314  0.26324  0.76996  1.0000
  C   C30       1.0  0.73671  0.26086  0.73826  1.0000
  C   C31       1.0  0.76534  0.75994  0.76716  1.0000
  C   C32       1.0  0.23473  0.76464  0.73075  1.0000
  C   C33       1.0  0.73590  0.73351  0.72709  1.0000
  C   C34       1.0  0.26644  0.73841  0.77756  1.0000
  C   C35       1.0  0.23350  0.23690  0.73069  1.0000
  C   C36       1.0  0.76735  0.23426  0.78091  1.0000
  H   H25       1.0  0.02318  0.76668  0.65159  1.0000
  H   H26       1.0  0.97507  0.77162  0.83948  1.0000
  H   H27       1.0  0.52424  0.27037  0.64371  1.0000
  H   H28       1.0  0.47308  0.26869  0.83600  1.0000
  H   H29       1.0  0.97606  0.23400  0.83563  1.0000
  H   H30       1.0  0.02318  0.23197  0.66124  1.0000
  H   H31       1.0  0.47621  0.73240  0.84312  1.0000
  H   H32       1.0  0.52635  0.73076  0.66562  1.0000
  C   C37       1.0  0.00271  0.48358  0.74538  1.0000
  C   C38       1.0  0.49988  0.98319  0.74842  1.0000
  C   C39       1.0  0.99954  0.51500  0.74848  1.0000
  C   C40       1.0  0.50296  0.01465  0.75021  1.0000
  C  Sn1       1.0  0.14545  0.20765  0.28103  1.0000
  C   C41       1.0  0.16807  0.22540  0.20255  1.0000
  C  Sn2       1.0  0.13875  0.25018  0.11255  1.0000
  C  Sn3       1.0  0.08572  0.25740  0.10080  1.0000
  C   C42       1.0  0.06312  0.23967  0.17925  1.0000
  C  Sn4       1.0  0.09241  0.21487  0.26927  1.0000
  O  Te1       1.0  0.17549  0.18298  0.37035  1.0000
  O  Te2       1.0  0.16222  0.26758  0.03513  1.0000
  O  Te3       1.0  0.05567  0.28210  0.01137  1.0000
  O  Te4       1.0  0.06897  0.19749  0.34668  1.0000
  Mg  Mg1       1.0  0.26145  0.28912  0.92777  1.0000
  Mg  Mg2       1.0  0.12599  0.16612  0.45412  1.0000
  C  Sn5       1.0  0.85103  0.21131  0.22488  1.0000
  C   C43       1.0  0.82792  0.22871  0.29811  1.0000
  C  Sn6       1.0  0.85762  0.25189  0.38659  1.0000
  C  Sn7       1.0  0.91153  0.25783  0.40214  1.0000
  C   C44       1.0  0.93460  0.24044  0.32891  1.0000
  C  Sn8       1.0  0.90494  0.21725  0.24042  1.0000
  O  Te5       1.0  0.82059  0.18825  0.13699  1.0000
  O  Te6       1.0  0.83365  0.26897  0.45876  1.0000
  O  Te7       1.0  0.94196  0.28092  0.49012  1.0000
  O  Te8       1.0  0.92887  0.20018  0.16827  1.0000
  Mg  Mg3       1.0  0.89153  0.29795  0.56608  1.0000
  Mg  Mg4       1.0  0.87102  0.17120  0.06086  1.0000
  C  Sn9       1.0  0.65235  0.70729  0.30026  1.0000
  C   C45       1.0  0.67372  0.72569  0.22084  1.0000
  C  Sn10      1.0  0.64081  0.74774  0.11815  1.0000
  C  Sn11      1.0  0.58540  0.75150  0.09440  1.0000
  C   C46       1.0  0.56406  0.73311  0.17380  1.0000
  C  Sn12      1.0  0.59694  0.71105  0.27650  1.0000
  O  Te9       1.0  0.68600  0.68539  0.40237  1.0000
  O  Te10      1.0  0.66309  0.76586  0.04005  1.0000
  O  Te11      1.0  0.70803  0.76360  0.99219  1.0000
  O  Te12      1.0  0.57470  0.69294  0.35459  1.0000
  Mg  Mg5       1.0  0.75717  0.78275  0.91292  1.0000
  Mg  Mg6       1.0  0.63685  0.66623  0.48180  1.0000
  C  Sn13      1.0  0.37316  0.76155  0.38559  1.0000
  C   C47       1.0  0.32987  0.74480  0.29015  1.0000
  C  Sn14      1.0  0.33982  0.72057  0.21855  1.0000
  C  Sn15      1.0  0.39418  0.71290  0.24290  1.0000
  C   C48       1.0  0.43743  0.72964  0.33831  1.0000
  C  Sn16      1.0  0.42752  0.75389  0.40995  1.0000
  O  Te13      1.0  0.36226  0.78568  0.45601  1.0000
  O  Te14      1.0  0.29588  0.70416  0.12360  1.0000
  O  Te15      1.0  0.40505  0.68875  0.17238  1.0000
  O  Te16      1.0  0.47143  0.77028  0.50486  1.0000
  Mg  Mg7       1.0  0.33155  0.67322  0.05332  1.0000
  Mg  Mg8       1.0  0.43580  0.80122  0.57526  1.0000
  C  Sn17      1.0  0.87804  0.75120  0.43760  1.0000
  C   C49       1.0  0.83354  0.76810  0.33648  1.0000
  C  Sn18      1.0  0.83589  0.78146  0.21165  1.0000
  C  Sn19      1.0  0.88370  0.77784  0.18734  1.0000
  C   C50       1.0  0.92815  0.76094  0.28841  1.0000
  C  Sn20      1.0  0.92584  0.74758  0.41329  1.0000
  O  Te17      1.0  0.87479  0.73805  0.56163  1.0000
  O  Te18      1.0  0.79090  0.79826  0.11214  1.0000
  O  Te19      1.0  0.88692  0.79101  0.06319  1.0000
  O  Te20      1.0  0.97080  0.73079  0.51275  1.0000
  Mg  Mg9       1.0  0.97128  0.80196  0.95957  1.0000
  Mg  Mg10      1.0  0.94673  0.71724  0.66531  1.0000
  C  Sn21      1.0  0.09508  0.74163  0.10701  1.0000
  C   C51       1.0  0.07252  0.75819  0.18422  1.0000
  C  Sn22      1.0  0.10271  0.78068  0.27671  1.0000
  C  Sn23      1.0  0.15658  0.78678  0.29230  1.0000
  C   C52       1.0  0.17911  0.77024  0.21511  1.0000
  C  Sn24      1.0  0.14895  0.74773  0.12261  1.0000
  O  Te21      1.0  0.06415  0.71925  0.01515  1.0000
  O  Te22      1.0  0.07928  0.79692  0.35279  1.0000
  O  Te23      1.0  0.18751  0.80919  0.38425  1.0000
  O  Te24      1.0  0.17234  0.73150  0.04653  1.0000
  Mg  Mg11      1.0  0.13771  0.82519  0.46469  1.0000
  Mg  Mg12      1.0  0.27023  0.69341  0.93456  1.0000
  C  Sn25      1.0  0.37628  0.25348  0.43242  1.0000
  C   C53       1.0  0.33020  0.26728  0.32182  1.0000
  C  Sn26      1.0  0.33289  0.27956  0.19558  1.0000
  C  Sn27      1.0  0.38267  0.27800  0.17951  1.0000
  C   C54       1.0  0.42871  0.26420  0.29006  1.0000
  C  Sn28      1.0  0.42606  0.25192  0.41635  1.0000
  O  Te25      1.0  0.37265  0.24135  0.55768  1.0000
  O  Te26      1.0  0.28628  0.29325  0.08652  1.0000
  O  Te27      1.0  0.38627  0.29014  0.05412  1.0000
  O  Te28      1.0  0.47263  0.23823  0.52536  1.0000
  Mg  Mg13      1.0  0.46794  0.29665  0.93606  1.0000
  Mg  Mg14      1.0  0.44729  0.22499  0.67583  1.0000
  C  Sn29      1.0  0.65188  0.27920  0.32855  1.0000
  C   C55       1.0  0.67467  0.26362  0.24901  1.0000
  C  Sn30      1.0  0.64121  0.25203  0.11533  1.0000
  C  Sn31      1.0  0.58378  0.25613  0.05994  1.0000
  C   C56       1.0  0.56103  0.27171  0.13945  1.0000
  C  Sn32      1.0  0.59446  0.28330  0.27317  1.0000
  O  Te29      1.0  0.68611  0.29059  0.46194  1.0000
  O  Te30      1.0  0.66493  0.23652  0.03780  1.0000
  O  Te31      1.0  0.70583  0.23490  0.92644  1.0000
  O  Te32      1.0  0.57076  0.29880  0.35066  1.0000
  Mg  Mg15      1.0  0.75748  0.21540  0.86125  1.0000
  Mg  Mg16      1.0  0.63445  0.31012  0.52718  1.0000
  C  Sn33      1.0  0.41285  0.03422  0.32778  1.0000
  C   C57       1.0  0.43132  0.02713  0.22260  1.0000
  C  Sn34      1.0  0.41685  0.04581  0.09655  1.0000
  C  Sn35      1.0  0.38323  0.07214  0.07523  1.0000
  C   C58       1.0  0.36478  0.07922  0.18038  1.0000
  C  Sn36      1.0  0.37923  0.06055  0.30645  1.0000
  O  Te33      1.0  0.42783  0.01523  0.45296  1.0000
  O  Te34      1.0  0.59208  0.02843  0.99293  1.0000
  O  Te35      1.0  0.52452  0.08131  0.94992  1.0000
  O  Te36      1.0  0.36030  0.06810  0.41005  1.0000
  Mg  Mg17      1.0  0.56058  0.06143  0.84037  1.0000
  Mg  Mg18      1.0  0.39179  0.03512  0.56267  1.0000
  C  Sn37      1.0  0.61265  0.03397  0.36066  1.0000
  C   C59       1.0  0.55643  0.03810  0.31539  1.0000
  C  Sn38      1.0  0.53120  0.06614  0.25187  1.0000
  C  Sn39      1.0  0.56280  0.09056  0.23311  1.0000
  C   C60       1.0  0.61898  0.08643  0.27833  1.0000
  C  Sn40      1.0  0.64425  0.05840  0.34190  1.0000
  O  Te37      1.0  0.63701  0.00575  0.42390  1.0000
  O  Te38      1.0  0.47494  0.06972  0.20752  1.0000
  O  Te39      1.0  0.53839  0.11880  0.16982  1.0000
  O  Te40      1.0  0.70048  0.05481  0.38621  1.0000
  Mg  Mg19      1.0  0.46048  0.11249  0.12697  1.0000
  Mg  Mg20      1.0  0.71497  0.01205  0.46670  1.0000
  C  Sn41      1.0  0.93123  0.58922  0.16072  1.0000
  C   C61       1.0  0.87728  0.58477  0.14142  1.0000
  C  Sn42      1.0  0.86047  0.55593  0.17007  1.0000
  C  Sn43      1.0  0.89838  0.53103  0.21912  1.0000
  C   C62       1.0  0.95230  0.53550  0.23842  1.0000
  C  Sn44      1.0  0.96914  0.56432  0.20978  1.0000
  O  Te41      1.0  0.94714  0.61824  0.13143  1.0000
  O  Te42      1.0  0.80631  0.55204  0.14992  1.0000
  O  Te43      1.0  0.88243  0.50200  0.24841  1.0000
  O  Te44      1.0  0.02326  0.56822  0.22993  1.0000
  Mg  Mg21      1.0  0.80425  0.50816  0.20448  1.0000
  Mg  Mg22      1.0  0.02537  0.61210  0.17548  1.0000
  C  Sn45      1.0  0.08417  0.55519  0.42051  1.0000
  C   C63       1.0  0.05086  0.54103  0.29364  1.0000
  C  Sn46      1.0  0.06430  0.54171  0.17459  1.0000
  C  Sn47      1.0  0.11206  0.55683  0.18253  1.0000
  C   C64       1.0  0.14535  0.57097  0.30935  1.0000
  C  Sn48      1.0  0.13193  0.57032  0.42845  1.0000
  O  Te45      1.0  0.06994  0.55424  0.53821  1.0000
  O  Te46      1.0  0.03035  0.52739  0.04891  1.0000
  O  Te47      1.0  0.12627  0.55778  0.06470  1.0000
  O  Te48      1.0  0.16586  0.58461  0.55408  1.0000
  Mg  Mg23      1.0  0.22332  0.52511  0.91741  1.0000
  Mg  Mg24      1.0  0.12922  0.57708  0.68567  1.0000
  C  Sn49      1.0  0.61037  0.95475  0.16593  1.0000
  C   C65       1.0  0.64394  0.93768  0.29095  1.0000
  C  Sn50      1.0  0.62966  0.93408  0.40818  1.0000
  C  Sn51      1.0  0.58078  0.94780  0.40028  1.0000
  C   C66       1.0  0.54723  0.96485  0.27531  1.0000
  C  Sn52      1.0  0.56149  0.96848  0.15802  1.0000
  O  Te49      1.0  0.62545  0.95805  0.05003  1.0000
  O  Te50      1.0  0.66389  0.91692  0.53204  1.0000
  O  Te51      1.0  0.56572  0.94448  0.51632  1.0000
  O  Te52      1.0  0.52729  0.98562  0.03422  1.0000
  Mg  Mg25      1.0  0.62574  0.91897  0.66149  1.0000
  Mg  Mg26      1.0  0.72166  0.97374  0.90468  1.0000
  C  Sn53      1.0  0.36269  0.95510  0.12422  1.0000
  C   C67       1.0  0.36924  0.92327  0.14320  1.0000
  C  Sn54      1.0  0.42133  0.90994  0.21175  1.0000
  C  Sn55      1.0  0.46786  0.92882  0.26248  1.0000
  C   C68       1.0  0.46129  0.96063  0.24352  1.0000
  C  Sn56      1.0  0.40921  0.97398  0.17495  1.0000
  O  Te53      1.0  0.31022  0.96793  0.05539  1.0000
  O  Te54      1.0  0.42686  0.87806  0.22943  1.0000
  O  Te55      1.0  0.52035  0.91596  0.33134  1.0000
  O  Te56      1.0  0.39918  0.00584  0.15728  1.0000
  Mg  Mg27      1.0  0.50684  0.87141  0.33002  1.0000
  Mg  Mg28      1.0  0.31922  0.01251  0.05678  1.0000
  C  Sn57      1.0  0.04979  0.42587  0.33522  1.0000
  C   C69       1.0  0.05257  0.45772  0.32171  1.0000
  C  Sn58      1.0  0.09353  0.47111  0.28911  1.0000
  C  Sn59      1.0  0.13251  0.45228  0.26950  1.0000
  C   C70       1.0  0.12971  0.42045  0.28298  1.0000
  C  Sn60      1.0  0.08877  0.40704  0.31561  1.0000
  O  Te57      1.0  0.00849  0.41298  0.36786  1.0000
  O  Te58      1.0  0.09548  0.50301  0.27620  1.0000
  O  Te59      1.0  0.17383  0.46519  0.23684  1.0000
  O  Te60      1.0  0.08680  0.37516  0.32850  1.0000
  Mg  Mg29      1.0  0.15944  0.50975  0.23036  1.0000
  Mg  Mg30      1.0  0.02285  0.36839  0.37426  1.0000
  C  Sn61      1.0  0.89973  0.45708  0.05853  1.0000
  C   C71       1.0  0.93219  0.47255  0.18201  1.0000
  C  Sn62      1.0  0.93308  0.46374  0.31697  1.0000
  C  Sn63      1.0  0.90089  0.43893  0.32878  1.0000
  C   C72       1.0  0.86846  0.42346  0.20536  1.0000
  C  Sn64      1.0  0.86754  0.43227  0.07035  1.0000
  O  Te61      1.0  0.05575  0.45646  0.92472  1.0000
  O  Te62      1.0  0.96584  0.47957  0.43886  1.0000
  O  Te63      1.0  0.90117  0.42973  0.46274  1.0000
  O  Te64      1.0  0.99109  0.40663  0.94851  1.0000
  Mg  Mg31      1.0  0.95242  0.45843  0.59730  1.0000
  Mg  Mg32      1.0  0.00449  0.42773  0.79004  1.0000
  C  Sn65      1.0  0.25172  0.17094  0.25920  1.0000
  C   C73       1.0  0.25903  0.20114  0.22045  1.0000
  C  Sn66      1.0  0.28359  0.20725  0.12517  1.0000
  C  Sn67      1.0  0.30119  0.18267  0.06733  1.0000
  C   C74       1.0  0.29387  0.15249  0.10607  1.0000
  C  Sn68      1.0  0.26932  0.14635  0.20137  1.0000
  O  Te65      1.0  0.22706  0.16536  0.35463  1.0000
  O  Te66      1.0  0.29047  0.23764  0.08806  1.0000
  O  Te67      1.0  0.48214  0.17845  0.97184  1.0000
  O  Te68      1.0  0.26243  0.11599  0.23845  1.0000
  Mg  Mg33      1.0  0.48250  0.22373  0.95396  1.0000
  Mg  Mg34      1.0  0.22666  0.12005  0.37248  1.0000
  C  Sn69      1.0  0.73794  0.17740  0.24006  1.0000
  C   C75       1.0  0.73535  0.20716  0.28226  1.0000
  C  Sn70      1.0  0.71583  0.21251  0.38717  1.0000
  C  Sn71      1.0  0.69857  0.18760  0.45132  1.0000
  C   C76       1.0  0.70118  0.15786  0.40914  1.0000
  C  Sn72      1.0  0.72069  0.15249  0.30421  1.0000
  O  Te69      1.0  0.75761  0.17259  0.13497  1.0000
  O  Te70      1.0  0.71360  0.24246  0.42755  1.0000
  O  Te71      1.0  0.67890  0.19244  0.55647  1.0000
  O  Te72      1.0  0.72293  0.12256  0.26384  1.0000
  Mg  Mg35      1.0  0.68373  0.23736  0.57541  1.0000
  Mg  Mg36      1.0  0.75282  0.12764  0.11605  1.0000
  C  Sn73      1.0  0.75327  0.65780  0.20546  1.0000
  C   C77       1.0  0.78295  0.65606  0.12101  1.0000
  C  Sn74      1.0  0.80399  0.68250  0.08243  1.0000
  C  Sn75      1.0  0.79523  0.71129  0.12931  1.0000
  C   C78       1.0  0.76559  0.71303  0.21373  1.0000
  C  Sn76      1.0  0.74451  0.68659  0.25234  1.0000
  O  Te73      1.0  0.73261  0.63107  0.24276  1.0000
  O  Te74      1.0  0.98978  0.67036  0.99788  1.0000
  O  Te75      1.0  0.81592  0.73803  0.09193  1.0000
  O  Te76      1.0  0.71502  0.68890  0.33686  1.0000
  Mg  Mg37      1.0  0.00975  0.71328  0.97518  1.0000
  Mg  Mg38      1.0  0.69506  0.64600  0.35968  1.0000
  C  Sn77      1.0  0.24906  0.67221  0.26140  1.0000
  C   C79       1.0  0.24165  0.70199  0.29565  1.0000
  C  Sn78      1.0  0.21696  0.70705  0.38983  1.0000
  C  Sn79      1.0  0.19933  0.68181  0.45115  1.0000
  C   C80       1.0  0.20675  0.65205  0.41692  1.0000
  C  Sn80      1.0  0.23143  0.64697  0.32272  1.0000
  O  Te77      1.0  0.27385  0.66769  0.16700  1.0000
  O  Te78      1.0  0.20997  0.73703  0.42241  1.0000
  O  Te79      1.0  0.17452  0.68635  0.54561  1.0000
  O  Te80      1.0  0.23843  0.61700  0.29016  1.0000
  Mg  Mg39      1.0  0.17406  0.73145  0.55682  1.0000
  Mg  Mg40      1.0  0.27436  0.62256  0.15583  1.0000
  C  Sn81      1.0  0.69429  0.81290  0.43138  1.0000
  C   C81       1.0  0.70635  0.84311  0.40591  1.0000
  C  Sn82      1.0  0.73561  0.84950  0.32231  1.0000
  C  Sn83      1.0  0.75315  0.82518  0.26285  1.0000
  C   C82       1.0  0.74109  0.79499  0.28830  1.0000
  C  Sn84      1.0  0.71184  0.78858  0.37191  1.0000
  O  Te81      1.0  0.66499  0.80705  0.51527  1.0000
  O  Te82      1.0  0.74719  0.87988  0.29839  1.0000
  O  Te83      1.0  0.78248  0.83106  0.17891  1.0000
  O  Te84      1.0  0.70025  0.75822  0.39582  1.0000
  Mg  Mg41      1.0  0.78824  0.87622  0.17681  1.0000
  Mg  Mg42      1.0  0.65918  0.76185  0.51731  1.0000
  C  Sn85      1.0  0.23631  0.82804  0.19346  1.0000
  C   C83       1.0  0.23991  0.79811  0.15452  1.0000
  C  Sn86      1.0  0.27996  0.79000  0.10801  1.0000
  C  Sn87      1.0  0.31722  0.81225  0.10035  1.0000
  C   C84       1.0  0.31362  0.84215  0.13930  1.0000
  C  Sn88      1.0  0.27357  0.85029  0.18580  1.0000
  O  Te85      1.0  0.19594  0.83564  0.23966  1.0000
  O  Te86      1.0  0.28274  0.75994  0.06961  1.0000
  O  Te87      1.0  0.35761  0.80463  0.05411  1.0000
  O  Te88      1.0  0.27078  0.88033  0.22422  1.0000
  Mg  Mg43      1.0  0.34492  0.76072  0.01345  1.0000
  Mg  Mg44      1.0  0.20864  0.87957  0.28046  1.0000
  C  Sn89      1.0  0.22315  0.34012  0.23382  1.0000
  C   C85       1.0  0.19208  0.34267  0.31423  1.0000
  C  Sn90      1.0  0.19028  0.31835  0.40608  1.0000
  C  Sn91      1.0  0.22017  0.29093  0.41789  1.0000
  C   C86       1.0  0.25122  0.28840  0.33753  1.0000
  C  Sn92      1.0  0.25305  0.31270  0.24563  1.0000
  O  Te89      1.0  0.22436  0.36472  0.14269  1.0000
  O  Te90      1.0  0.15891  0.32143  0.48534  1.0000
  O  Te91      1.0  0.21893  0.26632  0.50912  1.0000
  O  Te92      1.0  0.28439  0.30964  0.16643  1.0000
  Mg  Mg45      1.0  0.17029  0.28154  0.59489  1.0000
  Mg  Mg46      1.0  0.27307  0.34951  0.05690  1.0000
  C  Sn93      1.0  0.72616  0.33220  0.15413  1.0000
  C   C87       1.0  0.73860  0.30213  0.13521  1.0000
  C  Sn94      1.0  0.78737  0.29529  0.12441  1.0000
  C  Sn95      1.0  0.82451  0.31899  0.13280  1.0000
  C   C88       1.0  0.81207  0.34903  0.15173  1.0000
  C  Sn96      1.0  0.76330  0.35589  0.16251  1.0000
  O  Te93      1.0  0.67717  0.33851  0.16466  1.0000
  O  Te94      1.0  0.79890  0.26506  0.10547  1.0000
  O  Te95      1.0  0.87354  0.31265  0.12224  1.0000
  O  Te96      1.0  0.75177  0.38610  0.18147  1.0000
  Mg  Mg47      1.0  0.87091  0.26793  0.09704  1.0000
  Mg  Mg48      1.0  0.67979  0.38326  0.18998  1.0000
  C  Sn97      1.0  0.12446  0.25981  0.61135  1.0000
  C   C89       1.0  0.16966  0.24414  0.71653  1.0000
  C  Sn98      1.0  0.16253  0.21963  0.79972  1.0000
  C  Sn99      1.0  0.10910  0.21058  0.77725  1.0000
  C   C90       1.0  0.06393  0.22624  0.67211  1.0000
  C  Sn100     1.0  0.07103  0.25076  0.58889  1.0000
  O  Te97      1.0  0.13255  0.28424  0.52944  1.0000
  O  Te98      1.0  0.20835  0.20433  0.90426  1.0000
  O  Te99      1.0  0.10104  0.18613  0.85928  1.0000
  O  Te100     1.0  0.02524  0.26605  0.48438  1.0000
  Mg  Mg49      1.0  0.17629  0.17245  0.98853  1.0000
  Mg  Mg50      1.0  0.05725  0.29792  0.40001  1.0000
  C  Sn101     1.0  0.87327  0.25995  0.88070  1.0000
  C   C91       1.0  0.82945  0.24352  0.78532  1.0000
  C  Sn102     1.0  0.83859  0.21935  0.71201  1.0000
  C  Sn103     1.0  0.89264  0.21142  0.73456  1.0000
  C   C92       1.0  0.93643  0.22784  0.82990  1.0000
  C  Sn104     1.0  0.92733  0.25202  0.90325  1.0000
  O  Te101     1.0  0.86319  0.28403  0.95284  1.0000
  O  Te102     1.0  0.79412  0.20327  0.61716  1.0000
  O  Te103     1.0  0.90270  0.18732  0.66231  1.0000
  O  Te104     1.0  0.97176  0.26810  0.99806  1.0000
  Mg  Mg51      1.0  0.82873  0.17227  0.54413  1.0000
  Mg  Mg52      1.0  0.78092  0.30891  0.07120  1.0000
  C  Sn105     1.0  0.64927  0.70521  0.78094  1.0000
  C   C93       1.0  0.67197  0.72344  0.70420  1.0000
  C  Sn106     1.0  0.64295  0.74869  0.61765  1.0000
  C  Sn107     1.0  0.59015  0.75589  0.60766  1.0000
  C   C94       1.0  0.56748  0.73768  0.68438  1.0000
  C  Sn108     1.0  0.59647  0.71241  0.77095  1.0000
  O  Te105     1.0  0.67902  0.68007  0.86681  1.0000
  O  Te106     1.0  0.66649  0.76657  0.54191  1.0000
  O  Te107     1.0  0.56040  0.78106  0.52169  1.0000
  O  Te108     1.0  0.57296  0.69455  0.84668  1.0000
  Mg  Mg53      1.0  0.60988  0.79846  0.43926  1.0000
  Mg  Mg54      1.0  0.62954  0.66266  0.94941  1.0000
  C  Sn109     1.0  0.37474  0.76133  0.88538  1.0000
  C   C95       1.0  0.32984  0.74601  0.78757  1.0000
  C  Sn110     1.0  0.33743  0.72151  0.71351  1.0000
  C  Sn111     1.0  0.39102  0.71211  0.73779  1.0000
  C   C96       1.0  0.43588  0.72743  0.83556  1.0000
  C  Sn112     1.0  0.42833  0.75193  0.90966  1.0000
  O  Te109     1.0  0.36620  0.78576  0.95823  1.0000
  O  Te110     1.0  0.29191  0.70656  0.61622  1.0000
  O  Te111     1.0  0.39953  0.68766  0.66483  1.0000
  O  Te112     1.0  0.31754  0.77670  0.00692  1.0000
  Mg  Mg55      1.0  0.32456  0.67454  0.54312  1.0000
  Mg  Mg56      1.0  0.28494  0.80871  0.08013  1.0000
  C  Sn113     1.0  0.84594  0.77550  0.65762  1.0000
  C   C97       1.0  0.82550  0.75910  0.74515  1.0000
  C  Sn114     1.0  0.86015  0.74964  0.88708  1.0000
  C  Sn115     1.0  0.91639  0.75672  0.94273  1.0000
  C   C98       1.0  0.93679  0.77311  0.85523  1.0000
  C  Sn116     1.0  0.90218  0.78258  0.71326  1.0000
  O  Te113     1.0  0.81056  0.78473  0.51605  1.0000
  O  Te114     1.0  0.83878  0.73327  0.97251  1.0000
  O  Te115     1.0  0.79549  0.75730  0.08441  1.0000
  O  Te116     1.0  0.92352  0.79894  0.62787  1.0000
  Mg  Mg57      1.0  0.74704  0.73554  0.15853  1.0000
  Mg  Mg58      1.0  0.85902  0.80652  0.44187  1.0000
  C  Sn117     1.0  0.15087  0.77677  0.83210  1.0000
  C   C99       1.0  0.17515  0.76087  0.75698  1.0000
  C  Sn118     1.0  0.14314  0.74917  0.62241  1.0000
  C  Sn119     1.0  0.08565  0.75345  0.56158  1.0000
  C   C100      1.0  0.06140  0.76934  0.63667  1.0000
  C  Sn120     1.0  0.09339  0.78105  0.77127  1.0000
  O  Te117     1.0  0.18368  0.78827  0.96648  1.0000
  O  Te118     1.0  0.16834  0.73335  0.54938  1.0000
  O  Te119     1.0  0.05285  0.74193  0.42709  1.0000
  O  Te120     1.0  0.06822  0.79687  0.84427  1.0000
  Mg  Mg59      1.0  0.10622  0.72200  0.36937  1.0000
  Mg  Mg60      1.0  0.97402  0.81806  0.02424  1.0000
  C  Sn121     1.0  0.37934  0.29191  0.71724  1.0000
  C   C101      1.0  0.42514  0.27719  0.82482  1.0000
  C  Sn122     1.0  0.41901  0.25274  0.90989  1.0000
  C  Sn123     1.0  0.36600  0.24278  0.88689  1.0000
  C   C102      1.0  0.32024  0.25748  0.77934  1.0000
  C  Sn124     1.0  0.32633  0.28194  0.69424  1.0000
  O  Te121     1.0  0.38643  0.31630  0.63347  1.0000
  O  Te122     1.0  0.30914  0.24822  0.01683  1.0000
  O  Te123     1.0  0.35894  0.21836  0.97077  1.0000
  O  Te124     1.0  0.27996  0.29628  0.58734  1.0000
  Mg  Mg61      1.0  0.27840  0.21600  0.10299  1.0000
  Mg  Mg62      1.0  0.31065  0.32849  0.50107  1.0000
  C  Sn125     1.0  0.62380  0.25415  0.56445  1.0000
  C   C103      1.0  0.66871  0.26723  0.67340  1.0000
  C  Sn126     1.0  0.66393  0.27906  0.79338  1.0000
  C  Sn127     1.0  0.61323  0.27778  0.80478  1.0000
  C   C104      1.0  0.56836  0.26470  0.69590  1.0000
  C  Sn128     1.0  0.57309  0.25287  0.57585  1.0000
  O  Te125     1.0  0.62951  0.24247  0.44547  1.0000
  O  Te126     1.0  0.70940  0.29203  0.90089  1.0000
  O  Te127     1.0  0.60755  0.28948  0.92390  1.0000
  O  Te128     1.0  0.52767  0.23990  0.46841  1.0000
  Mg  Mg63      1.0  0.52496  0.31469  0.04218  1.0000
  Mg  Mg64      1.0  0.55578  0.22705  0.32712  1.0000
  C  Sn129     1.0  0.46622  0.07267  0.78809  1.0000
  C   C105      1.0  0.46002  0.04139  0.76340  1.0000
  C  Sn130     1.0  0.40833  0.02953  0.68529  1.0000
  C  Sn131     1.0  0.36187  0.04934  0.63064  1.0000
  C   C106      1.0  0.36808  0.08060  0.65531  1.0000
  C  Sn132     1.0  0.41976  0.09249  0.73343  1.0000
  O  Te129     1.0  0.51829  0.08403  0.86645  1.0000
  O  Te130     1.0  0.40315  0.99817  0.66203  1.0000
  O  Te131     1.0  0.30978  0.03795  0.55223  1.0000
  O  Te132     1.0  0.42495  0.12382  0.75667  1.0000
  Mg  Mg65      1.0  0.32816  0.99360  0.54884  1.0000
  Mg  Mg66      1.0  0.50442  0.12842  0.86978  1.0000
  C  Sn133     1.0  0.58295  0.03870  0.65646  1.0000
  C   C107      1.0  0.56671  0.02658  0.76186  1.0000
  C  Sn134     1.0  0.58494  0.03939  0.89740  1.0000
  C  Sn135     1.0  0.62009  0.06486  0.92821  1.0000
  C   C108      1.0  0.63630  0.07697  0.82284  1.0000
  C  Sn136     1.0  0.61811  0.06416  0.68727  1.0000
  O  Te133     1.0  0.56423  0.02552  0.52170  1.0000
  O  Te134     1.0  0.41189  0.03670  0.00104  1.0000
  O  Te135     1.0  0.48253  0.08785  0.06310  1.0000
  O  Te136     1.0  0.63485  0.07667  0.58366  1.0000
  Mg  Mg67      1.0  0.44832  0.06267  0.16863  1.0000
  Mg  Mg68      1.0  0.59843  0.05073  0.41602  1.0000
  C  Sn137     1.0  0.91047  0.53059  0.82406  1.0000
  C   C109      1.0  0.93289  0.52523  0.72508  1.0000
  C  Sn138     1.0  0.92140  0.54523  0.60449  1.0000
  C  Sn139     1.0  0.88679  0.57115  0.58242  1.0000
  C   C110      1.0  0.86440  0.57650  0.68138  1.0000
  C  Sn140     1.0  0.87587  0.55650  0.80199  1.0000
  O  Te137     1.0  0.92252  0.51029  0.94385  1.0000
  O  Te138     1.0  0.94428  0.53939  0.50701  1.0000
  O  Te139     1.0  0.87475  0.59145  0.46250  1.0000
  O  Te140     1.0  0.85301  0.56234  0.89945  1.0000
  Mg  Mg69      1.0  0.91573  0.57372  0.36031  1.0000
  Mg  Mg70      1.0  0.72528  0.53787  0.04621  1.0000
  C  Sn141     1.0  0.03573  0.57545  0.74499  1.0000
  C   C111      1.0  0.04125  0.54365  0.74591  1.0000
  C  Sn142     1.0  0.09299  0.52977  0.80057  1.0000
  C  Sn143     1.0  0.14020  0.54807  0.85554  1.0000
  C   C112      1.0  0.13467  0.57985  0.85463  1.0000
  C  Sn144     1.0  0.08294  0.59375  0.79997  1.0000
  O  Te141     1.0  0.98360  0.58883  0.68984  1.0000
  O  Te142     1.0  0.09748  0.49794  0.80029  1.0000
  O  Te143     1.0  0.19236  0.53466  0.91072  1.0000
  O  Te144     1.0  0.07843  0.62557  0.80025  1.0000
  Mg  Mg71      1.0  0.17737  0.49040  0.88702  1.0000
  Mg  Mg72      1.0  0.99857  0.63313  0.71362  1.0000
  C  Sn145     1.0  0.54787  0.92349  0.83919  1.0000
  C   C113      1.0  0.55146  0.95525  0.82385  1.0000
  C  Sn146     1.0  0.59266  0.96795  0.79010  1.0000
  C  Sn147     1.0  0.63104  0.94850  0.77119  1.0000
  C   C114      1.0  0.62743  0.91676  0.78651  1.0000
  C  Sn148     1.0  0.58625  0.90404  0.82029  1.0000
  O  Te145     1.0  0.50635  0.91130  0.87296  1.0000
  O  Te146     1.0  0.59093  0.99977  0.77536  1.0000
  O  Te147     1.0  0.67258  0.96072  0.73741  1.0000
  O  Te148     1.0  0.58346  0.87224  0.83500  1.0000
  Mg  Mg73      1.0  0.65488  0.00545  0.72853  1.0000
  Mg  Mg74      1.0  0.51952  0.86653  0.88175  1.0000
  C  Sn149     1.0  0.39938  0.95509  0.55908  1.0000
  C   C115      1.0  0.43130  0.97094  0.68180  1.0000
  C  Sn150     1.0  0.43238  0.96223  0.81707  1.0000
  C  Sn151     1.0  0.40092  0.93714  0.82997  1.0000
  C   C116      1.0  0.36903  0.92130  0.70730  1.0000
  C  Sn152     1.0  0.36792  0.93000  0.57198  1.0000
  O  Te149     1.0  0.39892  0.96420  0.42494  1.0000
  O  Te150     1.0  0.46460  0.97843  0.93819  1.0000
  O  Te151     1.0  0.40141  0.92804  0.96425  1.0000
  O  Te152     1.0  0.33574  0.91381  0.45092  1.0000
  Mg  Mg75      1.0  0.29545  0.96711  0.09747  1.0000
  Mg  Mg76      1.0  0.34860  0.93493  0.29161  1.0000
  C  Sn153     1.0  0.11115  0.45280  0.66756  1.0000
  C   C117      1.0  0.14483  0.43557  0.79190  1.0000
  C  Sn154     1.0  0.13126  0.43222  0.91044  1.0000
  C  Sn155     1.0  0.08300  0.44635  0.90455  1.0000
  C   C118      1.0  0.04934  0.46356  0.78026  1.0000
  C  Sn156     1.0  0.06289  0.46694  0.66167  1.0000
  O  Te153     1.0  0.12552  0.45585  0.55033  1.0000
  O  Te154     1.0  0.00931  0.42472  0.03358  1.0000
  O  Te155     1.0  0.91238  0.45312  0.02192  1.0000
  O  Te156     1.0  0.02859  0.48424  0.53858  1.0000
  Mg  Mg77      1.0  0.97225  0.42724  0.16543  1.0000
  Mg  Mg78      1.0  0.06559  0.48172  0.40665  1.0000
  C  Sn157     1.0  0.89335  0.46706  0.70856  1.0000
  C   C119      1.0  0.94859  0.46272  0.74010  1.0000
  C  Sn158     1.0  0.96847  0.43394  0.72848  1.0000
  C  Sn159     1.0  0.93237  0.40897  0.68433  1.0000
  C   C120      1.0  0.87716  0.41332  0.65279  1.0000
  C  Sn160     1.0  0.85725  0.44209  0.66440  1.0000
  O  Te157     1.0  0.87438  0.49603  0.72090  1.0000
  O  Te158     1.0  0.02386  0.43017  0.76065  1.0000
  O  Te159     1.0  0.95139  0.37999  0.67201  1.0000
  O  Te160     1.0  0.80189  0.44587  0.63224  1.0000
  Mg  Mg79      1.0  0.03022  0.38631  0.72760  1.0000
  Mg  Mg80      1.0  0.79549  0.48972  0.66517  1.0000
  C  Sn161     1.0  0.31909  0.19306  0.61655  1.0000
  C   C121      1.0  0.31542  0.16249  0.65761  1.0000
  C  Sn162     1.0  0.27590  0.15377  0.70691  1.0000
  C  Sn163     1.0  0.23927  0.17606  0.71527  1.0000
  C   C122      1.0  0.24294  0.20661  0.67420  1.0000
  C  Sn164     1.0  0.28246  0.21535  0.62490  1.0000
  O  Te161     1.0  0.35891  0.20126  0.56757  1.0000
  O  Te162     1.0  0.27304  0.12307  0.74741  1.0000
  O  Te163     1.0  0.19943  0.16783  0.76430  1.0000
  O  Te164     1.0  0.28533  0.24603  0.58441  1.0000
  Mg  Mg81      1.0  0.21175  0.12317  0.80705  1.0000
  Mg  Mg82      1.0  0.34657  0.24595  0.52468  1.0000
  C  Sn165     1.0  0.71730  0.19879  0.93918  1.0000
  C   C123      1.0  0.75268  0.20309  0.87118  1.0000
  C  Sn166     1.0  0.76057  0.17998  0.79057  1.0000
  C  Sn167     1.0  0.73248  0.15199  0.77758  1.0000
  C   C124      1.0  0.69712  0.14770  0.84554  1.0000
  C  Sn168     1.0  0.68921  0.17080  0.92619  1.0000
  O  Te165     1.0  0.55375  0.23203  0.01922  1.0000
  O  Te166     1.0  0.79616  0.18481  0.72360  1.0000
  O  Te167     1.0  0.73978  0.12857  0.69747  1.0000
  O  Te168     1.0  0.65363  0.16598  0.99311  1.0000
  Mg  Mg83      1.0  0.79250  0.14604  0.62627  1.0000
  Mg  Mg84      1.0  0.50097  0.21457  0.09041  1.0000
  C  Sn169     1.0  0.79703  0.70125  0.59688  1.0000
  C   C125      1.0  0.75414  0.70463  0.63888  1.0000
  C  Sn170     1.0  0.73693  0.67964  0.69886  1.0000
  C  Sn171     1.0  0.76316  0.65067  0.71733  1.0000
  C   C126      1.0  0.80604  0.64730  0.67537  1.0000
  C  Sn172     1.0  0.82327  0.67228  0.61535  1.0000
  O  Te169     1.0  0.81356  0.72655  0.53717  1.0000
  O  Te170     1.0  0.69394  0.68358  0.73998  1.0000
  O  Te171     1.0  0.74660  0.62536  0.77710  1.0000
  O  Te172     1.0  0.86623  0.66835  0.57427  1.0000
  Mg  Mg85      1.0  0.68620  0.64223  0.81637  1.0000
  Mg  Mg86      1.0  0.87402  0.70969  0.49794  1.0000
  C  Sn173     1.0  0.25119  0.65711  0.83102  1.0000
  C   C127      1.0  0.21704  0.65448  0.90348  1.0000
  C  Sn174     1.0  0.19378  0.68060  0.93114  1.0000
  C  Sn175     1.0  0.20486  0.70995  0.88536  1.0000
  C   C128      1.0  0.23899  0.71257  0.81293  1.0000
  C  Sn176     1.0  0.26227  0.68646  0.78523  1.0000
  O  Te173     1.0  0.27399  0.63069  0.80451  1.0000
  O  Te174     1.0  0.00351  0.68722  0.00381  1.0000
  O  Te175     1.0  0.18203  0.73638  0.91193  1.0000
  O  Te176     1.0  0.29624  0.68966  0.71260  1.0000
  Mg  Mg87      1.0  0.98207  0.73002  0.01461  1.0000
  Mg  Mg88      1.0  0.31767  0.64687  0.70167  1.0000
  C  Sn177     1.0  0.69453  0.78864  0.87234  1.0000
  C   C129      1.0  0.72490  0.78698  0.78968  1.0000
  C  Sn178     1.0  0.74731  0.81336  0.75530  1.0000
  C  Sn179     1.0  0.73923  0.84200  0.80463  1.0000
  C   C130      1.0  0.70888  0.84366  0.88726  1.0000
  C  Sn180     1.0  0.68644  0.81729  0.92167  1.0000
  O  Te177     1.0  0.67251  0.76197  0.90543  1.0000
  O  Te178     1.0  0.77751  0.81112  0.67247  1.0000
  O  Te179     1.0  0.76128  0.86868  0.77147  1.0000
  O  Te180     1.0  0.49999  0.82934  0.00446  1.0000
  Mg  Mg89      1.0  0.79933  0.85391  0.65564  1.0000
  Mg  Mg90      1.0  0.47818  0.78657  0.02142  1.0000
  C  Sn181     1.0  0.22781  0.83057  0.67276  1.0000
  C   C131      1.0  0.23765  0.80065  0.64521  1.0000
  C  Sn182     1.0  0.28329  0.79379  0.61903  1.0000
  C  Sn183     1.0  0.31988  0.81732  0.62050  1.0000
  C   C132      1.0  0.31003  0.84721  0.64806  1.0000
  C  Sn184     1.0  0.26439  0.85410  0.67423  1.0000
  O  Te181     1.0  0.18193  0.83691  0.69865  1.0000
  O  Te182     1.0  0.29227  0.76371  0.59170  1.0000
  O  Te183     1.0  0.36578  0.81095  0.59457  1.0000
  O  Te184     1.0  0.25542  0.88415  0.70157  1.0000
  Mg  Mg91      1.0  0.36048  0.76648  0.56271  1.0000
  Mg  Mg92      1.0  0.18724  0.88141  0.73065  1.0000
  C  Sn185     1.0  0.18609  0.29554  0.84157  1.0000
  C   C133      1.0  0.22486  0.29231  0.78462  1.0000
  C  Sn186     1.0  0.25600  0.31726  0.77547  1.0000
  C  Sn187     1.0  0.24825  0.34603  0.82435  1.0000
  C   C134      1.0  0.20951  0.34924  0.88129  1.0000
  C  Sn188     1.0  0.17834  0.32431  0.89045  1.0000
  O  Te185     1.0  0.15542  0.27029  0.84969  1.0000
  O  Te186     1.0  0.29451  0.31348  0.71808  1.0000
  O  Te187     1.0  0.27897  0.37129  0.81618  1.0000
  O  Te188     1.0  0.13986  0.32808  0.94783  1.0000
  Mg  Mg93      1.0  0.32638  0.35469  0.72968  1.0000
  Mg  Mg94      1.0  0.10799  0.28688  0.93635  1.0000
  C  Sn189     1.0  0.78264  0.33792  0.76267  1.0000
  C   C135      1.0  0.81046  0.34099  0.67336  1.0000
  C  Sn190     1.0  0.80672  0.31843  0.57640  1.0000
  C  Sn191     1.0  0.77447  0.29228  0.56846  1.0000
  C   C136      1.0  0.74667  0.28923  0.65770  1.0000
  C  Sn192     1.0  0.75039  0.31177  0.75473  1.0000
  O  Te189     1.0  0.78696  0.36076  0.85880  1.0000
  O  Te190     1.0  0.83493  0.32200  0.48826  1.0000
  O  Te191     1.0  0.77017  0.26944  0.47223  1.0000
  O  Te192     1.0  0.72220  0.30822  0.84281  1.0000
  Mg  Mg95      1.0  0.81620  0.28468  0.37463  1.0000
  Mg  Mg96      1.0  0.74087  0.34553  0.95642  1.0000
