data_image0
_chemical_formula_structural       N8C8H8C8H8C4N8C8H8C8H8C6Sn2C2HTe2HMgC2Sn2C2HTe2HMgC2Sn2C2HTe2HMgC2Sn2C2HTe2HMgC2Sn2C2HTe2HMgC2Sn2C2HTe2HMgC2Sn2C2HTe2HMgC2Sn2C2HTe2HMgC2Sn2C2HTe2HMgC2Sn2C2HTe2HMgC2Sn2C2HTe2HMgC2Sn2C2HTe2HMgC2Sn2C2HTe2HMgC2Sn2C2HTe2HMgC2Sn2C2HTe2HMgC2Sn2C2HTe2HMgC2Sn2C2HTe2HMgC2Sn2C2HTe2HMgC2Sn2C2HTe2HMgC2Sn2C2HTe2HMgC2Sn2C2HTe2HMgC2Sn2C2HTe2HMgC2Sn2C2HTe2HMgC2Sn2C2HTe2HMgC2Sn2C2HTe2HMgC2Sn2C2HTe2HMgC2Sn2C2HTe2HMgC2Sn2C2HTe2HMgC2Sn2C2HTe2HMgC2Sn2C2HTe2HMgC2Sn2C2HTe2HMgC2Sn2C2HTe2HMgC2Sn2C2HTe2HMgC2Sn2C2HTe2HMgC2Sn2C2HTe2HMgC2Sn2C2HTe2HMgC2Sn2C2HTe2HMgC2Sn2C2HTe2HMgC2Sn2C2HTe2HMgC2Sn2C2HTe2HMgC2Sn2C2HTe2HMgC2Sn2C2HTe2HMgC2Sn2C2HTe2HMgC2Sn2C2HTe2HMgC2Sn2C2HTe2HMgC2Sn2C2HTe2HMgC2Sn2C2HTe2HMgC2Sn2C2HTe2HMg
_chemical_formula_sum              "N16 C232 H128 Sn96 Te96 Mg48"
_cell_length_a       26.9322
_cell_length_b       43.7009
_cell_length_c       10.1475
_cell_angle_alpha    87.5091
_cell_angle_beta     114.512
_cell_angle_gamma    90.1589

_symmetry_space_group_name_H-M    'P1'
_space_group_IT_number       1

loop_
  _space_group_symop_operation_xyz
  'x, y, z'

loop_
  _atom_site_type_symbol
  _atom_site_label
  _atom_site_symmetry_multiplicity
  _atom_site_fract_x
  _atom_site_fract_y
  _atom_site_fract_z
  _atom_site_occupancy
  N   N1        1.0  0.32681  0.09825  0.19268  1.0000
  N   N2        1.0  0.66473  0.10580  0.32752  1.0000
  N   N3        1.0  0.83347  0.60473  0.17991  1.0000
  N   N4        1.0  0.17124  0.60035  0.31887  1.0000
  N   N5        1.0  0.67160  0.90220  0.30335  1.0000
  N   N6        1.0  0.33496  0.89596  0.17419  1.0000
  N   N7        1.0  0.16682  0.39629  0.31302  1.0000
  N   N8        1.0  0.82824  0.40329  0.18486  1.0000
  C   C1        1.0  0.32914  0.12459  0.13262  1.0000
  C   C2        1.0  0.66311  0.13148  0.38476  1.0000
  C   C3        1.0  0.82965  0.63112  0.11319  1.0000
  C   C4        1.0  0.17052  0.62447  0.38738  1.0000
  C   C5        1.0  0.66710  0.87617  0.36261  1.0000
  C   C6        1.0  0.33393  0.87070  0.11114  1.0000
  C   C7        1.0  0.17048  0.37027  0.38275  1.0000
  C   C8        1.0  0.83263  0.37796  0.12906  1.0000
  H   H1        1.0  0.35729  0.12854  0.08024  1.0000
  H   H2        1.0  0.63586  0.13500  0.43921  1.0000
  H   H3        1.0  0.85008  0.63547  0.04025  1.0000
  H   H4        1.0  0.14369  0.62651  0.44420  1.0000
  H   H5        1.0  0.63742  0.87303  0.41074  1.0000
  H   H6        1.0  0.35842  0.86757  0.04856  1.0000
  H   H7        1.0  0.15029  0.36655  0.45666  1.0000
  H   H8        1.0  0.86327  0.37498  0.08480  1.0000
  C   C9        1.0  0.26212  0.26124  0.26127  1.0000
  C   C10       1.0  0.73347  0.26660  0.22213  1.0000
  C   C11       1.0  0.76452  0.76466  0.28067  1.0000
  C   C12       1.0  0.23614  0.76198  0.23619  1.0000
  C   C13       1.0  0.73536  0.73815  0.24295  1.0000
  C   C14       1.0  0.26760  0.73567  0.28354  1.0000
  C   C15       1.0  0.23180  0.23508  0.22342  1.0000
  C   C16       1.0  0.76432  0.24002  0.27069  1.0000
  H   H9        1.0  0.02477  0.77136  0.15323  1.0000
  H   H10       1.0  0.97228  0.76291  0.32776  1.0000
  H   H11       1.0  0.52397  0.26857  0.16016  1.0000
  H   H12       1.0  0.47291  0.26958  0.33800  1.0000
  H   H13       1.0  0.97525  0.23331  0.34667  1.0000
  H   H14       1.0  0.02219  0.23291  0.16216  1.0000
  H   H15       1.0  0.47705  0.73636  0.34364  1.0000
  H   H16       1.0  0.52434  0.72396  0.15367  1.0000
  C   C17       1.0  0.00007  0.48512  0.24757  1.0000
  C   C18       1.0  0.50071  0.98503  0.24087  1.0000
  C   C19       1.0  0.00150  0.51663  0.24782  1.0000
  C   C20       1.0  0.49727  0.01653  0.23886  1.0000
  N   N9        1.0  0.33557  0.10343  0.68191  1.0000
  N   N10       1.0  0.67298  0.09761  0.81265  1.0000
  N   N11       1.0  0.82559  0.59548  0.68842  1.0000
  N   N12       1.0  0.16552  0.60465  0.83195  1.0000
  N   N13       1.0  0.66466  0.89270  0.81938  1.0000
  N   N14       1.0  0.32889  0.90104  0.68789  1.0000
  N   N15       1.0  0.17206  0.40023  0.80304  1.0000
  N   N16       1.0  0.83647  0.39464  0.67105  1.0000
  C   C21       1.0  0.33473  0.13026  0.62170  1.0000
  C   C22       1.0  0.67226  0.12163  0.88171  1.0000
  C   C23       1.0  0.83323  0.62241  0.64288  1.0000
  C   C24       1.0  0.16738  0.62969  0.89740  1.0000
  C   C25       1.0  0.66794  0.86658  0.88808  1.0000
  C   C26       1.0  0.33036  0.87615  0.62506  1.0000
  C   C27       1.0  0.16979  0.37453  0.86831  1.0000
  C   C28       1.0  0.83388  0.36937  0.60689  1.0000
  H   H17       1.0  0.35916  0.13501  0.55926  1.0000
  H   H18       1.0  0.64595  0.12332  0.94021  1.0000
  H   H19       1.0  0.86616  0.62643  0.60695  1.0000
  H   H20       1.0  0.14413  0.63270  0.96333  1.0000
  H   H21       1.0  0.64682  0.86246  0.95954  1.0000
  H   H22       1.0  0.35836  0.87324  0.57236  1.0000
  H   H23       1.0  0.14316  0.37166  0.92588  1.0000
  H   H24       1.0  0.85618  0.36611  0.53875  1.0000
  C   C29       1.0  0.26314  0.26324  0.76996  1.0000
  C   C30       1.0  0.73671  0.26086  0.73826  1.0000
  C   C31       1.0  0.76534  0.75994  0.76716  1.0000
  C   C32       1.0  0.23473  0.76464  0.73075  1.0000
  C   C33       1.0  0.73590  0.73351  0.72709  1.0000
  C   C34       1.0  0.26644  0.73841  0.77756  1.0000
  C   C35       1.0  0.23350  0.23690  0.73069  1.0000
  C   C36       1.0  0.76735  0.23426  0.78091  1.0000
  H   H25       1.0  0.02318  0.76668  0.65159  1.0000
  H   H26       1.0  0.97507  0.77162  0.83948  1.0000
  H   H27       1.0  0.52424  0.27037  0.64371  1.0000
  H   H28       1.0  0.47308  0.26869  0.83600  1.0000
  H   H29       1.0  0.97606  0.23400  0.83563  1.0000
  H   H30       1.0  0.02318  0.23197  0.66124  1.0000
  H   H31       1.0  0.47621  0.73240  0.84312  1.0000
  H   H32       1.0  0.52635  0.73076  0.66562  1.0000
  C   C37       1.0  0.00271  0.48358  0.74538  1.0000
  C   C38       1.0  0.49988  0.98319  0.74842  1.0000
  C   C39       1.0  0.99954  0.51500  0.74848  1.0000
  C   C40       1.0  0.50296  0.01465  0.75021  1.0000
  C   C41       1.0  0.11893  0.25475  0.07742  1.0000
  C   C42       1.0  0.16514  0.24048  0.18547  1.0000
  C  Sn1       1.0  0.16006  0.22083  0.29140  1.0000
  C  Sn2       1.0  0.10770  0.21542  0.28881  1.0000
  C   C43       1.0  0.06172  0.22980  0.18019  1.0000
  C   C44       1.0  0.06726  0.24942  0.07474  1.0000
  H   H33       1.0  0.27948  0.26009  0.99578  1.0000
  O  Te1       1.0  0.20666  0.20677  0.39862  1.0000
  O  Te2       1.0  0.10146  0.19589  0.39333  1.0000
  H   H34       1.0  0.18775  0.25063  0.99104  1.0000
  Mg  Mg1       1.0  0.17720  0.18207  0.51741  1.0000
  C   C45       1.0  0.87868  0.21585  0.20228  1.0000
  C   C46       1.0  0.92403  0.23071  0.30091  1.0000
  C  Sn3       1.0  0.91857  0.24942  0.40249  1.0000
  C  Sn4       1.0  0.86671  0.25326  0.40515  1.0000
  C   C47       1.0  0.82160  0.23828  0.30609  1.0000
  C   C48       1.0  0.82751  0.21962  0.20487  1.0000
  H   H35       1.0  0.88325  0.20140  0.12401  1.0000
  O  Te3       1.0  0.96430  0.26410  0.50022  1.0000
  O  Te4       1.0  0.86011  0.27182  0.50558  1.0000
  H   H36       1.0  0.79240  0.20810  0.12858  1.0000
  Mg  Mg2       1.0  0.93464  0.28703  0.61649  1.0000
  C   C49       1.0  0.62053  0.75051  0.07801  1.0000
  C   C50       1.0  0.66779  0.73985  0.19541  1.0000
  C  Sn5       1.0  0.66402  0.72105  0.30572  1.0000
  C  Sn6       1.0  0.61193  0.71281  0.29804  1.0000
  C   C51       1.0  0.56490  0.72357  0.18009  1.0000
  C   C52       1.0  0.56914  0.74238  0.07032  1.0000
  H   H37       1.0  0.78008  0.75523  0.99303  1.0000
  O  Te5       1.0  0.71165  0.71061  0.42227  1.0000
  O  Te6       1.0  0.60700  0.69404  0.40678  1.0000
  H   H38       1.0  0.68882  0.74079  0.97940  1.0000
  Mg  Mg3       1.0  0.68380  0.68558  0.54372  1.0000
  C   C53       1.0  0.38255  0.71512  0.20864  1.0000
  C   C54       1.0  0.42627  0.73205  0.30111  1.0000
  C  Sn7       1.0  0.41964  0.75076  0.40106  1.0000
  C  Sn8       1.0  0.36824  0.75249  0.40834  1.0000
  C   C55       1.0  0.32477  0.73545  0.31542  1.0000
  C   C56       1.0  0.33185  0.71681  0.21578  1.0000
  H   H39       1.0  0.38803  0.70069  0.13159  1.0000
  O  Te7       1.0  0.46374  0.76753  0.49260  1.0000
  O  Te8       1.0  0.36049  0.77100  0.50725  1.0000
  H   H40       1.0  0.29801  0.70369  0.14427  1.0000
  Mg  Mg4       1.0  0.43295  0.78950  0.60911  1.0000
  C   C57       1.0  0.84832  0.78684  0.18899  1.0000
  C   C58       1.0  0.82393  0.76871  0.26175  1.0000
  C  Sn9       1.0  0.85550  0.74809  0.37454  1.0000
  C  Sn10      1.0  0.91253  0.74563  0.41501  1.0000
  C   C59       1.0  0.93655  0.76388  0.34161  1.0000
  C   C60       1.0  0.90458  0.78443  0.22888  1.0000
  H   H41       1.0  0.82360  0.80276  0.10181  1.0000
  O  Te9       1.0  0.83047  0.73014  0.44605  1.0000
  O  Te10      1.0  0.94504  0.72521  0.52738  1.0000
  H   H42       1.0  0.92348  0.79848  0.17263  1.0000
  Mg  Mg5       1.0  0.89205  0.70568  0.59214  1.0000
  C   C61       1.0  0.15185  0.78521  0.31696  1.0000
  C   C62       1.0  0.17581  0.76658  0.25012  1.0000
  C  Sn11      1.0  0.14320  0.74962  0.13231  1.0000
  C  Sn12      1.0  0.08555  0.75139  0.08070  1.0000
  C   C63       1.0  0.06198  0.77011  0.14825  1.0000
  C   C64       1.0  0.09500  0.78698  0.26609  1.0000
  H   H43       1.0  0.17739  0.79828  0.40808  1.0000
  O  Te11      1.0  0.16780  0.73112  0.06682  1.0000
  O  Te12      1.0  0.20827  0.72487  0.96311  1.0000
  H   H44       1.0  0.07643  0.80141  0.31776  1.0000
  Mg  Mg6       1.0  0.26104  0.70289  0.91001  1.0000
  C   C65       1.0  0.37474  0.28494  0.17937  1.0000
  C   C66       1.0  0.42175  0.27386  0.29634  1.0000
  C  Sn13      1.0  0.41754  0.25507  0.40610  1.0000
  C  Sn14      1.0  0.36525  0.24727  0.39829  1.0000
  C   C67       1.0  0.31846  0.25846  0.28077  1.0000
  C   C68       1.0  0.32314  0.27725  0.17155  1.0000
  H   H45       1.0  0.37835  0.29947  0.09482  1.0000
  O  Te13      1.0  0.46492  0.24420  0.52222  1.0000
  O  Te14      1.0  0.35987  0.22853  0.50647  1.0000
  H   H46       1.0  0.28674  0.28581  0.08096  1.0000
  Mg  Mg7       1.0  0.43648  0.21939  0.64299  1.0000
  C   C69       1.0  0.59185  0.24846  0.06983  1.0000
  C   C70       1.0  0.56905  0.26182  0.15506  1.0000
  C  Sn15      1.0  0.60082  0.27996  0.26900  1.0000
  C  Sn16      1.0  0.65643  0.28477  0.29785  1.0000
  C   C71       1.0  0.67885  0.27131  0.21188  1.0000
  C   C72       1.0  0.64669  0.25320  0.09818  1.0000
  H   H47       1.0  0.72324  0.22463  0.98180  1.0000
  O  Te15      1.0  0.57739  0.29313  0.35312  1.0000
  O  Te16      1.0  0.68911  0.30280  0.41101  1.0000
  H   H48       1.0  0.66435  0.24287  0.03214  1.0000
  Mg  Mg8       1.0  0.63856  0.31585  0.49522  1.0000
  C   C73       1.0  0.39999  0.05122  0.34199  1.0000
  C   C74       1.0  0.36805  0.07067  0.22428  1.0000
  C  Sn17      1.0  0.37279  0.06955  0.09257  1.0000
  C  Sn18      1.0  0.41022  0.04853  0.07878  1.0000
  C   C75       1.0  0.44196  0.02915  0.19715  1.0000
  C   C76       1.0  0.43691  0.03047  0.32846  1.0000
  H   H49       1.0  0.39607  0.05223  0.44357  1.0000
  O  Te17      1.0  0.49685  0.07934  0.97607  1.0000
  O  Te18      1.0  0.57203  0.03709  0.94837  1.0000
  H   H50       1.0  0.46162  0.01539  0.41956  1.0000
  Mg  Mg9       1.0  0.51916  0.06854  0.82065  1.0000
  C   C77       1.0  0.55533  0.09035  0.25809  1.0000
  C   C78       1.0  0.61198  0.08691  0.31126  1.0000
  C  Sn19      1.0  0.63612  0.05770  0.34085  1.0000
  C  Sn20      1.0  0.60282  0.03148  0.31662  1.0000
  C   C79       1.0  0.54618  0.03516  0.26331  1.0000
  C   C80       1.0  0.52245  0.06450  0.23411  1.0000
  H   H51       1.0  0.53696  0.11304  0.23542  1.0000
  O  Te19      1.0  0.69279  0.05467  0.39397  1.0000
  O  Te20      1.0  0.62588  0.00202  0.34523  1.0000
  H   H52       1.0  0.47858  0.06715  0.19286  1.0000
  Mg  Mg10      1.0  0.70505  0.00972  0.41650  1.0000
  C   C81       1.0  0.93940  0.59001  0.20937  1.0000
  C   C82       1.0  0.88391  0.58633  0.17516  1.0000
  C  Sn21      1.0  0.86211  0.55702  0.16458  1.0000
  C  Sn22      1.0  0.89662  0.53096  0.18878  1.0000
  C   C83       1.0  0.95208  0.53488  0.22304  1.0000
  C   C84       1.0  0.97346  0.56432  0.23332  1.0000
  H   H53       1.0  0.95595  0.61278  0.21740  1.0000
  O  Te21      1.0  0.80658  0.55375  0.13025  1.0000
  O  Te22      1.0  0.87591  0.50140  0.17895  1.0000
  H   H54       1.0  0.01643  0.56716  0.25990  1.0000
  Mg  Mg11      1.0  0.79752  0.50875  0.12924  1.0000
  C   C85       1.0  0.09696  0.55831  0.15481  1.0000
  C   C86       1.0  0.12993  0.57329  0.27940  1.0000
  C  Sn23      1.0  0.12596  0.56659  0.41053  1.0000
  C  Sn24      1.0  0.08824  0.54447  0.41671  1.0000
  C   C87       1.0  0.05545  0.52959  0.29149  1.0000
  C   C88       1.0  0.05976  0.53647  0.16083  1.0000
  H   H55       1.0  0.10030  0.56362  0.05373  1.0000
  O  Te23      1.0  0.15920  0.58178  0.53396  1.0000
  O  Te24      1.0  0.08344  0.53732  0.54637  1.0000
  H   H56       1.0  0.03424  0.52486  0.06441  1.0000
  Mg  Mg12      1.0  0.13762  0.56417  0.68528  1.0000
  C   C89       1.0  0.57631  0.96002  0.13697  1.0000
  C   C90       1.0  0.55437  0.96701  0.23523  1.0000
  C  Sn25      1.0  0.57818  0.95481  0.37773  1.0000
  C  Sn26      1.0  0.62482  0.93526  0.42238  1.0000
  C   C91       1.0  0.64648  0.92843  0.32327  1.0000
  C   C92       1.0  0.62232  0.94075  0.18092  1.0000
  H   H57       1.0  0.55764  0.96957  0.02685  1.0000
  O  Te25      1.0  0.55573  0.96202  0.47450  1.0000
  O  Te26      1.0  0.64945  0.92276  0.56416  1.0000
  H   H58       1.0  0.63934  0.93535  0.10489  1.0000
  Mg  Mg13      1.0  0.60383  0.93935  0.65611  1.0000
  C   C93       1.0  0.44226  0.91121  0.21667  1.0000
  C   C94       1.0  0.38781  0.91486  0.19474  1.0000
  C  Sn27      1.0  0.36424  0.94413  0.17322  1.0000
  C  Sn28      1.0  0.39587  0.97018  0.17368  1.0000
  C   C95       1.0  0.45030  0.96628  0.19561  1.0000
  C   C96       1.0  0.47348  0.93688  0.21709  1.0000
  H   H59       1.0  0.46019  0.88846  0.23321  1.0000
  O  Te27      1.0  0.30979  0.94737  0.15152  1.0000
  O  Te28      1.0  0.36883  0.99970  0.15238  1.0000
  H   H60       1.0  0.51563  0.93406  0.23397  1.0000
  Mg  Mg14      1.0  0.29742  0.99232  0.12733  1.0000
  C   C97       1.0  0.11410  0.46983  0.29537  1.0000
  C   C98       1.0  0.05975  0.46623  0.27409  1.0000
  C  Sn29      1.0  0.03920  0.43699  0.27815  1.0000
  C  Sn30      1.0  0.07379  0.41090  0.30406  1.0000
  C   C99       1.0  0.12811  0.41475  0.32531  1.0000
  C   C100      1.0  0.14825  0.44411  0.32098  1.0000
  H   H61       1.0  0.12970  0.49255  0.29210  1.0000
  O  Te29      1.0  0.98480  0.43381  0.25662  1.0000
  O  Te30      1.0  0.05430  0.38141  0.30873  1.0000
  H   H62       1.0  0.19034  0.44689  0.33755  1.0000
  Mg  Mg15      1.0  0.97718  0.38887  0.27297  1.0000
  C   C101      1.0  0.91040  0.44871  0.06424  1.0000
  C   C102      1.0  0.93961  0.46683  0.18094  1.0000
  C  Sn31      1.0  0.93076  0.46439  0.30723  1.0000
  C  Sn32      1.0  0.89193  0.44340  0.31656  1.0000
  C   C103      1.0  0.86295  0.42536  0.19925  1.0000
  C   C104      1.0  0.87212  0.42799  0.07337  1.0000
  H   H63       1.0  0.07379  0.44091  0.96687  1.0000
  O  Te31      1.0  0.96027  0.48267  0.42279  1.0000
  O  Te32      1.0  0.88230  0.44049  0.44152  1.0000
  H   H64       1.0  0.00580  0.40412  0.98307  1.0000
  Mg  Mg16      1.0  0.93267  0.47040  0.57005  1.0000
  C   C105      1.0  0.25097  0.15408  0.21479  1.0000
  C   C106      1.0  0.28644  0.15039  0.14766  1.0000
  C  Sn33      1.0  0.30615  0.17599  0.09833  1.0000
  C  Sn34      1.0  0.28998  0.20579  0.11673  1.0000
  C   C107      1.0  0.25451  0.20924  0.18412  1.0000
  C   C108      1.0  0.23503  0.18347  0.23304  1.0000
  H   H65       1.0  0.23591  0.13414  0.25272  1.0000
  O  Te33      1.0  0.34154  0.17189  0.03144  1.0000
  O  Te34      1.0  0.30908  0.23177  0.06849  1.0000
  H   H66       1.0  0.20759  0.18633  0.28509  1.0000
  Mg  Mg17      1.0  0.51282  0.20456  0.98392  1.0000
  C   C109      1.0  0.70044  0.20907  0.40576  1.0000
  C   C110      1.0  0.73773  0.21204  0.34304  1.0000
  C  Sn35      1.0  0.75299  0.18655  0.28908  1.0000
  C  Sn36      1.0  0.73041  0.15758  0.29820  1.0000
  C   C111      1.0  0.69311  0.15485  0.36105  1.0000
  C   C112      1.0  0.67814  0.18051  0.41475  1.0000
  H   H67       1.0  0.68884  0.22892  0.44724  1.0000
  O  Te35      1.0  0.79031  0.18991  0.22681  1.0000
  O  Te36      1.0  0.74493  0.13172  0.24507  1.0000
  H   H68       1.0  0.64924  0.17821  0.46322  1.0000
  Mg  Mg18      1.0  0.79736  0.14792  0.16980  1.0000
  C   C113      1.0  0.75306  0.67233  0.26123  1.0000
  C   C114      1.0  0.75548  0.70304  0.22014  1.0000
  C  Sn37      1.0  0.77985  0.71103  0.12614  1.0000
  C  Sn38      1.0  0.80217  0.68779  0.07242  1.0000
  C   C115      1.0  0.79951  0.65713  0.11410  1.0000
  C   C116      1.0  0.77505  0.64939  0.20825  1.0000
  H   H69       1.0  0.73411  0.66633  0.33402  1.0000
  O  Te37      1.0  0.78194  0.74183  0.08623  1.0000
  O  Te38      1.0  0.98302  0.68531  0.97829  1.0000
  H   H70       1.0  0.77315  0.62561  0.23997  1.0000
  Mg  Mg19      1.0  0.97592  0.73053  0.95543  1.0000
  C   C117      1.0  0.26408  0.66927  0.30145  1.0000
  C   C118      1.0  0.25322  0.69959  0.32081  1.0000
  C  Sn39      1.0  0.21649  0.70612  0.38105  1.0000
  C  Sn40      1.0  0.19023  0.68179  0.42262  1.0000
  C   C119      1.0  0.20141  0.65153  0.40291  1.0000
  C   C120      1.0  0.23821  0.64526  0.34248  1.0000
  H   H71       1.0  0.29258  0.66441  0.25477  1.0000
  O  Te39      1.0  0.20608  0.73655  0.39958  1.0000
  O  Te40      1.0  0.15336  0.68767  0.48314  1.0000
  H   H72       1.0  0.24665  0.62177  0.32759  1.0000
  Mg  Mg20      1.0  0.15260  0.73293  0.48665  1.0000
  C   C121      1.0  0.67985  0.81133  0.38899  1.0000
  C   C122      1.0  0.69502  0.84164  0.37869  1.0000
  C  Sn41      1.0  0.73569  0.84836  0.33066  1.0000
  C  Sn42      1.0  0.76156  0.82424  0.29227  1.0000
  C   C123      1.0  0.74606  0.79400  0.30286  1.0000
  C   C124      1.0  0.70533  0.78753  0.35109  1.0000
  H   H73       1.0  0.64832  0.80632  0.42623  1.0000
  O  Te41      1.0  0.75037  0.87877  0.32107  1.0000
  O  Te42      1.0  0.80231  0.83032  0.24389  1.0000
  H   H74       1.0  0.69357  0.76406  0.35896  1.0000
  Mg  Mg21      1.0  0.80814  0.87546  0.24927  1.0000
  C   C125      1.0  0.30827  0.80756  0.07352  1.0000
  C   C126      1.0  0.30129  0.83801  0.10005  1.0000
  C  Sn43      1.0  0.27136  0.84506  0.17928  1.0000
  C  Sn44      1.0  0.24804  0.82114  0.23284  1.0000
  C   C127      1.0  0.25529  0.79075  0.20580  1.0000
  C   C128      1.0  0.28530  0.78395  0.12635  1.0000
  H   H75       1.0  0.33151  0.80230  0.01212  1.0000
  O  Te43      1.0  0.26477  0.87561  0.20476  1.0000
  O  Te44      1.0  0.21795  0.82754  0.31238  1.0000
  H   H76       1.0  0.29072  0.76037  0.10590  1.0000
  Mg  Mg22      1.0  0.22031  0.87276  0.31876  1.0000
  C   C129      1.0  0.20475  0.29199  0.40627  1.0000
  C   C130      1.0  0.23147  0.28862  0.31539  1.0000
  C  Sn45      1.0  0.24490  0.31439  0.25129  1.0000
  C  Sn46      1.0  0.23130  0.34406  0.27891  1.0000
  C   C131      1.0  0.20460  0.34719  0.37007  1.0000
  C   C132      1.0  0.19133  0.32124  0.43362  1.0000
  H   H77       1.0  0.19451  0.27192  0.45550  1.0000
  O  Te45      1.0  0.27158  0.31062  0.16073  1.0000
  O  Te46      1.0  0.24426  0.37021  0.21630  1.0000
  H   H78       1.0  0.17067  0.32386  0.50404  1.0000
  Mg  Mg23      1.0  0.28064  0.35324  0.10066  1.0000
  C   C133      1.0  0.74690  0.34771  0.18299  1.0000
  C   C134      1.0  0.79167  0.35169  0.14832  1.0000
  C  Sn47      1.0  0.81583  0.32652  0.11611  1.0000
  C  Sn48      1.0  0.79468  0.29683  0.11871  1.0000
  C   C135      1.0  0.74986  0.29309  0.15342  1.0000
  C   C136      1.0  0.72601  0.31844  0.18552  1.0000
  H   H79       1.0  0.72843  0.36732  0.20774  1.0000
  O  Te47      1.0  0.86054  0.33090  0.08175  1.0000
  O  Te48      1.0  0.81802  0.27128  0.08691  1.0000
  H   H80       1.0  0.69133  0.31535  0.21226  1.0000
  Mg  Mg24      1.0  0.87831  0.28895  0.04643  1.0000
  C   C137      1.0  0.15019  0.21468  0.82425  1.0000
  C   C138      1.0  0.17271  0.22893  0.73620  1.0000
  C  Sn49      1.0  0.13981  0.24682  0.61340  1.0000
  C  Sn50      1.0  0.08334  0.25047  0.57839  1.0000
  C   C139      1.0  0.06121  0.23614  0.66723  1.0000
  C   C140      1.0  0.09449  0.21829  0.78983  1.0000
  H   H81       1.0  0.17594  0.20088  0.91916  1.0000
  O  Te49      1.0  0.16297  0.26088  0.52658  1.0000
  O  Te50      1.0  0.04953  0.26823  0.45632  1.0000
  H   H82       1.0  0.07705  0.20728  0.85804  1.0000
  Mg  Mg25      1.0  0.10014  0.28280  0.37165  1.0000
  C   C141      1.0  0.90787  0.25477  0.92333  1.0000
  C   C142      1.0  0.93212  0.23816  0.85034  1.0000
  C  Sn51      1.0  0.90045  0.21965  0.73791  1.0000
  C  Sn52      1.0  0.84346  0.21780  0.69803  1.0000
  C   C143      1.0  0.81958  0.23452  0.77166  1.0000
  C   C144      1.0  0.85165  0.25296  0.88403  1.0000
  H   H83       1.0  0.77640  0.27888  0.01022  1.0000
  O  Te51      1.0  0.92534  0.20320  0.66615  1.0000
  O  Te52      1.0  0.81085  0.19949  0.58603  1.0000
  H   H84       1.0  0.83286  0.26584  0.94046  1.0000
  Mg  Mg26      1.0  0.86367  0.18140  0.52075  1.0000
  C   C145      1.0  0.62254  0.70963  0.80580  1.0000
  C   C146      1.0  0.57775  0.72734  0.71150  1.0000
  C  Sn53      1.0  0.58316  0.74799  0.60942  1.0000
  C  Sn54      1.0  0.63440  0.75091  0.60184  1.0000
  C   C147      1.0  0.67895  0.73307  0.69660  1.0000
  C   C148      1.0  0.67310  0.71248  0.79836  1.0000
  H   H85       1.0  0.61801  0.69369  0.88449  1.0000
  O  Te53      1.0  0.53800  0.76552  0.51606  1.0000
  O  Te54      1.0  0.64094  0.77137  0.50081  1.0000
  H   H86       1.0  0.70777  0.69876  0.87130  1.0000
  Mg  Mg27      1.0  0.56732  0.79023  0.39699  1.0000
  C   C149      1.0  0.37990  0.75472  0.92447  1.0000
  C   C150      1.0  0.33346  0.74221  0.81834  1.0000
  C  Sn55      1.0  0.33822  0.72362  0.71543  1.0000
  C  Sn56      1.0  0.39050  0.71748  0.71914  1.0000
  C   C151      1.0  0.43671  0.73009  0.82580  1.0000
  C   C152      1.0  0.43148  0.74867  0.92823  1.0000
  H   H87       1.0  0.21958  0.77890  0.00377  1.0000
  O  Te55      1.0  0.29139  0.71131  0.61012  1.0000
  O  Te56      1.0  0.39643  0.69898  0.61763  1.0000
  H   H88       1.0  0.31117  0.76816  0.01044  1.0000
  Mg  Mg28      1.0  0.32046  0.68748  0.49525  1.0000
  C   C153      1.0  0.88025  0.74589  0.92344  1.0000
  C   C154      1.0  0.83336  0.76069  0.82077  1.0000
  C  Sn57      1.0  0.83634  0.77952  0.70953  1.0000
  C  Sn58      1.0  0.88726  0.78356  0.70118  1.0000
  C   C155      1.0  0.93393  0.76864  0.80436  1.0000
  C   C156      1.0  0.93049  0.74986  0.91525  1.0000
  H   H89       1.0  0.72132  0.74117  0.00920  1.0000
  O  Te57      1.0  0.78909  0.79415  0.60787  1.0000
  O  Te58      1.0  0.89139  0.80225  0.59109  1.0000
  H   H90       1.0  0.96680  0.73839  0.99468  1.0000
  Mg  Mg29      1.0  0.81552  0.81730  0.47809  1.0000
  C   C157      1.0  0.09361  0.74586  0.57205  1.0000
  C   C158      1.0  0.06930  0.75936  0.65351  1.0000
  C  Sn59      1.0  0.09998  0.77755  0.76844  1.0000
  C  Sn60      1.0  0.15601  0.78228  0.80216  1.0000
  C   C159      1.0  0.17994  0.76870  0.71995  1.0000
  C   C160      1.0  0.14887  0.75053  0.60520  1.0000
  H   H91       1.0  0.06957  0.73182  0.48321  1.0000
  O  Te59      1.0  0.07506  0.79085  0.84874  1.0000
  O  Te60      1.0  0.18761  0.80036  0.91642  1.0000
  H   H92       1.0  0.16769  0.74010  0.54209  1.0000
  Mg  Mg30      1.0  0.13517  0.81360  0.99417  1.0000
  C   C161      1.0  0.40675  0.24722  0.93339  1.0000
  C   C162      1.0  0.42847  0.26100  0.84252  1.0000
  C  Sn61      1.0  0.39492  0.27844  0.71882  1.0000
  C  Sn62      1.0  0.33861  0.28210  0.68578  1.0000
  C   C163      1.0  0.31728  0.26824  0.77744  1.0000
  C   C164      1.0  0.35121  0.25083  0.90092  1.0000
  H   H93       1.0  0.27672  0.24359  0.02897  1.0000
  O  Te61      1.0  0.41729  0.29205  0.62917  1.0000
  O  Te62      1.0  0.30417  0.29942  0.56288  1.0000
  H   H94       1.0  0.33439  0.24018  0.97131  1.0000
  Mg  Mg31      1.0  0.35380  0.31345  0.47412  1.0000
  C   C165      1.0  0.62128  0.28463  0.80357  1.0000
  C   C166      1.0  0.57545  0.27422  0.68762  1.0000
  C  Sn63      1.0  0.58169  0.25580  0.58620  1.0000
  C  Sn64      1.0  0.63483  0.24767  0.60144  1.0000
  C   C167      1.0  0.68042  0.25819  0.71788  1.0000
  C   C168      1.0  0.67371  0.27662  0.81872  1.0000
  H   H95       1.0  0.61609  0.29888  0.88164  1.0000
  O  Te63      1.0  0.53546  0.24561  0.47097  1.0000
  O  Te64      1.0  0.64223  0.22928  0.50167  1.0000
  H   H96       1.0  0.70920  0.28466  0.90853  1.0000
  Mg  Mg32      1.0  0.56659  0.22105  0.36301  1.0000
  C   C169      1.0  0.36490  0.04294  0.65630  1.0000
  C   C170      1.0  0.37071  0.07375  0.69064  1.0000
  C  Sn65      1.0  0.42168  0.08748  0.73557  1.0000
  C  Sn66      1.0  0.46760  0.06999  0.74617  1.0000
  C   C171      1.0  0.46135  0.03919  0.71146  1.0000
  C   C172      1.0  0.41016  0.02568  0.66667  1.0000
  H   H97       1.0  0.32529  0.03249  0.62156  1.0000
  O  Te65      1.0  0.42677  0.11828  0.76952  1.0000
  O  Te66      1.0  0.51900  0.08314  0.79073  1.0000
  H   H98       1.0  0.40567  0.00183  0.63999  1.0000
  Mg  Mg33      1.0  0.50529  0.12592  0.82518  1.0000
  C   C173      1.0  0.60234  0.04427  0.94002  1.0000
  C   C174      1.0  0.56291  0.03292  0.81296  1.0000
  C  Sn67      1.0  0.56372  0.04077  0.67892  1.0000
  C  Sn68      1.0  0.60481  0.06035  0.67231  1.0000
  C   C175      1.0  0.64410  0.07157  0.80006  1.0000
  C   C176      1.0  0.64290  0.06358  0.93361  1.0000
  H   H99       1.0  0.44516  0.04790  0.04336  1.0000
  O  Te67      1.0  0.52400  0.02923  0.55302  1.0000
  O  Te68      1.0  0.60658  0.06856  0.53979  1.0000
  H   H100      1.0  0.51718  0.08218  0.03198  1.0000
  Mg  Mg34      1.0  0.54353  0.04699  0.39822  1.0000
  C   C177      1.0  0.89646  0.54724  0.83889  1.0000
  C   C178      1.0  0.86665  0.56758  0.72264  1.0000
  C  Sn69      1.0  0.87554  0.56824  0.59635  1.0000
  C  Sn70      1.0  0.91502  0.54813  0.58655  1.0000
  C   C179      1.0  0.94460  0.52785  0.70341  1.0000
  C   C180      1.0  0.93539  0.52739  0.82930  1.0000
  H   H101      1.0  0.88931  0.54687  0.93627  1.0000
  O  Te69      1.0  0.84542  0.58871  0.48125  1.0000
  O  Te70      1.0  0.92471  0.54830  0.46157  1.0000
  H   H102      1.0  0.95845  0.51163  0.91924  1.0000
  Mg  Mg35      1.0  0.87336  0.58034  0.33376  1.0000
  C   C181      1.0  0.05917  0.58872  0.79668  1.0000
  C   C182      1.0  0.11465  0.58532  0.82893  1.0000
  C  Sn71      1.0  0.13719  0.55628  0.83450  1.0000
  C  Sn72      1.0  0.10347  0.53020  0.80719  1.0000
  C   C183      1.0  0.04801  0.53385  0.77492  1.0000
  C   C184      1.0  0.02587  0.56301  0.76967  1.0000
  H   H103      1.0  0.04204  0.61128  0.79253  1.0000
  O  Te71      1.0  0.19271  0.55329  0.86693  1.0000
  O  Te72      1.0  0.12494  0.50091  0.81200  1.0000
  H   H104      1.0  0.98291  0.56564  0.74461  1.0000
  Mg  Mg36      1.0  0.20296  0.50859  0.86086  1.0000
  C   C185      1.0  0.61306  0.96652  0.79578  1.0000
  C   C186      1.0  0.55863  0.96347  0.77460  1.0000
  C  Sn73      1.0  0.53748  0.93448  0.78086  1.0000
  C  Sn74      1.0  0.57157  0.90810  0.80890  1.0000
  C   C187      1.0  0.62598  0.91140  0.83004  1.0000
  C   C188      1.0  0.64671  0.94052  0.82350  1.0000
  H   H105      1.0  0.62911  0.98905  0.79080  1.0000
  O  Te73      1.0  0.48300  0.93184  0.75939  1.0000
  O  Te74      1.0  0.55150  0.87886  0.81580  1.0000
  H   H106      1.0  0.68886  0.94287  0.84000  1.0000
  Mg  Mg37      1.0  0.47450  0.88707  0.77920  1.0000
  C   C189      1.0  0.42111  0.95774  0.84638  1.0000
  C   C190      1.0  0.44532  0.96540  0.75161  1.0000
  C  Sn75      1.0  0.42524  0.95351  0.61378  1.0000
  C  Sn76      1.0  0.38007  0.93361  0.57033  1.0000
  C   C191      1.0  0.35611  0.92611  0.66590  1.0000
  C   C192      1.0  0.37655  0.93812  0.80359  1.0000
  H   H107      1.0  0.43690  0.96705  0.95288  1.0000
  O  Te75      1.0  0.44992  0.96139  0.52047  1.0000
  O  Te76      1.0  0.35916  0.92142  0.43318  1.0000
  H   H108      1.0  0.35777  0.93221  0.87690  1.0000
  Mg  Mg38      1.0  0.40671  0.93892  0.34469  1.0000
  C   C193      1.0  0.12158  0.43671  0.94256  1.0000
  C   C194      1.0  0.13636  0.42542  0.83686  1.0000
  C  Sn77      1.0  0.11128  0.43710  0.69362  1.0000
  C  Sn78      1.0  0.07068  0.46051  0.65584  1.0000
  C   C195      1.0  0.05622  0.47165  0.76240  1.0000
  C   C196      1.0  0.08156  0.45980  0.90540  1.0000
  H   H109      1.0  0.98494  0.43738  0.05322  1.0000
  O  Te77      1.0  0.12651  0.42556  0.58936  1.0000
  O  Te78      1.0  0.04497  0.47259  0.51351  1.0000
  H   H110      1.0  0.07014  0.46856  0.98723  1.0000
  Mg  Mg39      1.0  0.07972  0.44938  0.41003  1.0000
  C   C197      1.0  0.94379  0.40976  0.71483  1.0000
  C   C198      1.0  0.88886  0.41351  0.68803  1.0000
  C  Sn79      1.0  0.86511  0.44279  0.66259  1.0000
  C  Sn80      1.0  0.89705  0.46875  0.66404  1.0000
  C   C199      1.0  0.95195  0.46476  0.69086  1.0000
  C   C200      1.0  0.97531  0.43535  0.71623  1.0000
  H   H111      1.0  0.96185  0.38701  0.73438  1.0000
  O  Te79      1.0  0.81018  0.44612  0.63605  1.0000
  O  Te80      1.0  0.87434  0.49828  0.63890  1.0000
  H   H112      1.0  0.01783  0.43246  0.73688  1.0000
  Mg  Mg40      1.0  0.79775  0.49105  0.60787  1.0000
  C   C201      1.0  0.30534  0.19356  0.57161  1.0000
  C   C202      1.0  0.30699  0.16328  0.62376  1.0000
  C  Sn81      1.0  0.27888  0.15511  0.70850  1.0000
  C  Sn82      1.0  0.24858  0.17772  0.74143  1.0000
  C   C203      1.0  0.24716  0.20795  0.68865  1.0000
  C   C204      1.0  0.27545  0.21587  0.60399  1.0000
  H   H113      1.0  0.32721  0.19969  0.50604  1.0000
  O  Te81      1.0  0.28098  0.12476  0.75978  1.0000
  O  Te82      1.0  0.22010  0.17018  0.82584  1.0000
  H   H114      1.0  0.27414  0.23931  0.56354  1.0000
  Mg  Mg41      1.0  0.23541  0.12574  0.87065  1.0000
  C   C205      1.0  0.69149  0.18563  0.92227  1.0000
  C   C206      1.0  0.69737  0.15596  0.88394  1.0000
  C  Sn83      1.0  0.73275  0.15008  0.81869  1.0000
  C  Sn84      1.0  0.76276  0.17439  0.79149  1.0000
  C   C207      1.0  0.75662  0.20398  0.83034  1.0000
  C   C208      1.0  0.72109  0.20962  0.89553  1.0000
  H   H115      1.0  0.66403  0.18998  0.97278  1.0000
  O  Te83      1.0  0.73812  0.12031  0.78104  1.0000
  O  Te84      1.0  0.79842  0.16915  0.72646  1.0000
  H   H116      1.0  0.71658  0.23258  0.92528  1.0000
  Mg  Mg42      1.0  0.79178  0.12466  0.69484  1.0000
  C   C209      1.0  0.81145  0.70158  0.64046  1.0000
  C   C210      1.0  0.76518  0.70570  0.66768  1.0000
  C  Sn85      1.0  0.73753  0.68036  0.69062  1.0000
  C  Sn86      1.0  0.75666  0.65037  0.68621  1.0000
  C   C211      1.0  0.80302  0.64649  0.65900  1.0000
  C   C212      1.0  0.83037  0.67201  0.63615  1.0000
  H   H117      1.0  0.83263  0.72132  0.62285  1.0000
  O  Te85      1.0  0.69135  0.68488  0.71763  1.0000
  O  Te86      1.0  0.72982  0.62464  0.70882  1.0000
  H   H118      1.0  0.86621  0.66882  0.61517  1.0000
  Mg  Mg43      1.0  0.66870  0.64260  0.74164  1.0000
  C   C213      1.0  0.20661  0.70694  0.92201  1.0000
  C   C214      1.0  0.24134  0.71013  0.85145  1.0000
  C  Sn87      1.0  0.25369  0.68495  0.78950  1.0000
  C  Sn88      1.0  0.23078  0.65608  0.79850  1.0000
  C   C215      1.0  0.19605  0.65314  0.86923  1.0000
  C   C216      1.0  0.18398  0.67848  0.93088  1.0000
  H   H119      1.0  0.19725  0.72655  0.96964  1.0000
  O  Te87      1.0  0.28847  0.68853  0.71945  1.0000
  O  Te88      1.0  0.24242  0.63054  0.73749  1.0000
  H   H120      1.0  0.15706  0.67601  0.98542  1.0000
  Mg  Mg44      1.0  0.29208  0.64694  0.65335  1.0000
  C   C217      1.0  0.69369  0.80285  0.92788  1.0000
  C   C218      1.0  0.69901  0.83373  0.89483  1.0000
  C  Sn89      1.0  0.72637  0.84202  0.80835  1.0000
  C  Sn90      1.0  0.74877  0.81893  0.75409  1.0000
  C   C219      1.0  0.74320  0.78810  0.78769  1.0000
  C   C220      1.0  0.71575  0.78006  0.87435  1.0000
  H   H121      1.0  0.67243  0.79663  0.99487  1.0000
  O  Te89      1.0  0.73133  0.87298  0.77643  1.0000
  O  Te90      1.0  0.77630  0.82658  0.66737  1.0000
  H   H122      1.0  0.71161  0.75615  0.89984  1.0000
  Mg  Mg45      1.0  0.77246  0.87191  0.65390  1.0000
  C   C221      1.0  0.23954  0.83091  0.71998  1.0000
  C   C222      1.0  0.24441  0.80126  0.67983  1.0000
  C  Sn91      1.0  0.28009  0.79506  0.61590  1.0000
  C  Sn92      1.0  0.31144  0.81903  0.59189  1.0000
  C   C223      1.0  0.30630  0.84861  0.63253  1.0000
  C   C224      1.0  0.27045  0.85456  0.69638  1.0000
  H   H123      1.0  0.21183  0.83551  0.76945  1.0000
  O  Te91      1.0  0.28445  0.76531  0.57640  1.0000
  O  Te92      1.0  0.34743  0.81347  0.52824  1.0000
  H   H124      1.0  0.26672  0.87751  0.72754  1.0000
  Mg  Mg46      1.0  0.33907  0.76915  0.49314  1.0000
  C   C225      1.0  0.25746  0.32939  0.77077  1.0000
  C   C226      1.0  0.25130  0.29912  0.81117  1.0000
  C  Sn93      1.0  0.21500  0.29228  0.87404  1.0000
  C  Sn94      1.0  0.18434  0.31622  0.89672  1.0000
  C   C227      1.0  0.19077  0.34642  0.85583  1.0000
  C   C228      1.0  0.22722  0.35302  0.79304  1.0000
  H   H125      1.0  0.28565  0.33449  0.72212  1.0000
  O  Te93      1.0  0.20936  0.26192  0.91381  1.0000
  O  Te94      1.0  0.14775  0.31002  0.95929  1.0000
  H   H126      1.0  0.23195  0.37645  0.76169  1.0000
  Mg  Mg47      1.0  0.15435  0.26500  0.99527  1.0000
  C   C229      1.0  0.79009  0.29271  0.57743  1.0000
  C   C230      1.0  0.76627  0.28852  0.67569  1.0000
  C  Sn95      1.0  0.75812  0.31344  0.74655  1.0000
  C  Sn96      1.0  0.77412  0.34308  0.71826  1.0000
  C   C231      1.0  0.79788  0.34703  0.61969  1.0000
  C   C232      1.0  0.80587  0.32193  0.54942  1.0000
  H   H127      1.0  0.79624  0.27329  0.52299  1.0000
  O  Te95      1.0  0.73429  0.30885  0.84443  1.0000
  O  Te96      1.0  0.76643  0.36839  0.78753  1.0000
  H   H128      1.0  0.82427  0.32519  0.47328  1.0000
  Mg  Mg48      1.0  0.73229  0.35050  0.91186  1.0000
