data_image0
_chemical_formula_structural       N8C33H20C53H27C8H21C4N8C27H17C47H24C8H19C6Sn2C2HTe2HMgC2Sn2C2HTe2HMgC2Sn2C2HTe2HMgC2Sn2C2HTe2HMgC2Sn2C2HTe2HMgC2Sn2C2HTe2HMgC2Sn2C2HTe2HMgC2Sn2C2HTe2HMgC2Sn2C2HTe2HMgC2Sn2C2HTe2HMgC2Sn2C2HTe2HMgC2Sn2C2HTe2HMgC2Sn2C2HTe2HMgC2Sn2C2HTe2HMgC2Sn2C2HTe2HMgC2Sn2C2HTe2HMgC2Sn2C2HTe2HMgC2Sn2C2HTe2HMgC2Sn2C2HTe2HMgC2Sn2C2HTe2HMgC2Sn2C2HTe2HMgC2Sn2C2HTe2HMgC2Sn2C2HTe2HMgC2Sn2C2HTe2HMg
_chemical_formula_sum              "N16 C280 H176 Sn48 Te48 Mg24"
_cell_length_a       26.9322
_cell_length_b       43.7009
_cell_length_c       10.1475
_cell_angle_alpha    87.5091
_cell_angle_beta     114.512
_cell_angle_gamma    90.1589

_symmetry_space_group_name_H-M    'P1'
_space_group_IT_number       1

loop_
  _space_group_symop_operation_xyz
  'x, y, z'

loop_
  _atom_site_type_symbol
  _atom_site_label
  _atom_site_symmetry_multiplicity
  _atom_site_fract_x
  _atom_site_fract_y
  _atom_site_fract_z
  _atom_site_occupancy
  N   N1        1.0  0.32681  0.09825  0.19268  1.0000
  N   N2        1.0  0.66473  0.10580  0.32752  1.0000
  N   N3        1.0  0.83347  0.60473  0.17991  1.0000
  N   N4        1.0  0.17124  0.60035  0.31887  1.0000
  N   N5        1.0  0.67160  0.90220  0.30335  1.0000
  N   N6        1.0  0.33496  0.89596  0.17419  1.0000
  N   N7        1.0  0.16682  0.39629  0.31302  1.0000
  N   N8        1.0  0.82824  0.40329  0.18486  1.0000
  C   C1        1.0  0.32914  0.12459  0.13262  1.0000
  C   C2        1.0  0.66311  0.13148  0.38476  1.0000
  C   C3        1.0  0.82965  0.63112  0.11319  1.0000
  C   C4        1.0  0.17052  0.62447  0.38738  1.0000
  C   C5        1.0  0.66710  0.87617  0.36261  1.0000
  C   C6        1.0  0.33393  0.87070  0.11114  1.0000
  C   C7        1.0  0.17048  0.37027  0.38275  1.0000
  C   C8        1.0  0.83263  0.37796  0.12906  1.0000
  C   C9        1.0  0.29899  0.15155  0.14141  1.0000
  C   C10       1.0  0.69474  0.15776  0.37322  1.0000
  C   C11       1.0  0.69687  0.84866  0.35757  1.0000
  C   C12       1.0  0.19856  0.34372  0.36227  1.0000
  C   C13       1.0  0.80162  0.35085  0.13351  1.0000
  C   C14       1.0  0.39647  0.71847  0.22622  1.0000
  C   C15       1.0  0.10773  0.78401  0.28514  1.0000
  C   C16       1.0  0.38947  0.28358  0.20411  1.0000
  C   C17       1.0  0.60529  0.28535  0.27902  1.0000
  C   C18       1.0  0.34228  0.71822  0.20923  1.0000
  C   C19       1.0  0.16246  0.78117  0.30896  1.0000
  C   C20       1.0  0.33492  0.28108  0.18216  1.0000
  C   C21       1.0  0.65946  0.28489  0.29605  1.0000
  C   C22       1.0  0.32544  0.73527  0.29838  1.0000
  C   C23       1.0  0.17807  0.76379  0.21848  1.0000
  C   C24       1.0  0.32008  0.26304  0.27787  1.0000
  C   C25       1.0  0.67556  0.26757  0.20632  1.0000
  C   C26       1.0  0.36460  0.75282  0.40361  1.0000
  C   C27       1.0  0.13720  0.74854  0.10637  1.0000
  C   C28       1.0  0.36164  0.24719  0.39474  1.0000
  C   C29       1.0  0.63581  0.25042  0.10070  1.0000
  C   C30       1.0  0.41865  0.75337  0.41964  1.0000
  C   C31       1.0  0.08254  0.75093  0.08405  1.0000
  C   C32       1.0  0.41611  0.24918  0.41526  1.0000
  C   C33       1.0  0.58174  0.25058  0.08456  1.0000
  H   H1        1.0  0.35729  0.12854  0.08024  1.0000
  H   H2        1.0  0.63586  0.13500  0.43921  1.0000
  H   H3        1.0  0.85008  0.63547  0.04025  1.0000
  H   H4        1.0  0.14369  0.62651  0.44420  1.0000
  H   H5        1.0  0.63742  0.87303  0.41074  1.0000
  H   H6        1.0  0.35842  0.86757  0.04856  1.0000
  H   H7        1.0  0.15029  0.36655  0.45666  1.0000
  H   H8        1.0  0.86327  0.37498  0.08480  1.0000
  H   H9        1.0  0.40808  0.70539  0.15436  1.0000
  H   H10       1.0  0.09687  0.79761  0.35678  1.0000
  H   H11       1.0  0.39949  0.29757  0.12755  1.0000
  H   H12       1.0  0.59402  0.29873  0.35061  1.0000
  H   H13       1.0  0.31258  0.70558  0.12179  1.0000
  H   H14       1.0  0.19338  0.79181  0.40178  1.0000
  H   H15       1.0  0.30353  0.29250  0.08686  1.0000
  H   H16       1.0  0.68986  0.29718  0.38357  1.0000
  H   H17       1.0  0.44798  0.76731  0.50181  1.0000
  H   H18       1.0  0.05174  0.73888  0.99620  1.0000
  H   H19       1.0  0.44732  0.23640  0.50620  1.0000
  H   H20       1.0  0.55185  0.23700  0.00186  1.0000
  C   C34       1.0  0.44522  0.03298  0.21437  1.0000
  C   C35       1.0  0.05306  0.53361  0.27652  1.0000
  C   C36       1.0  0.45530  0.96322  0.21599  1.0000
  C   C37       1.0  0.04675  0.46373  0.27557  1.0000
  C   C38       1.0  0.43178  0.03724  0.33217  1.0000
  C   C39       1.0  0.06541  0.54319  0.15985  1.0000
  C   C40       1.0  0.39993  0.97115  0.18024  1.0000
  C   C41       1.0  0.09959  0.47170  0.28790  1.0000
  C   C42       1.0  0.38995  0.05734  0.31973  1.0000
  C   C43       1.0  0.10724  0.56364  0.17927  1.0000
  C   C44       1.0  0.36076  0.94922  0.16639  1.0000
  C   C45       1.0  0.13914  0.44968  0.30389  1.0000
  C   C46       1.0  0.36182  0.07474  0.18967  1.0000
  C   C47       1.0  0.13599  0.57631  0.31494  1.0000
  C   C48       1.0  0.37388  0.91774  0.18121  1.0000
  C   C49       1.0  0.12899  0.41820  0.31226  1.0000
  C   C50       1.0  0.37172  0.06860  0.06738  1.0000
  C   C51       1.0  0.12660  0.56506  0.43466  1.0000
  C   C52       1.0  0.42815  0.90935  0.21277  1.0000
  C   C53       1.0  0.07752  0.40988  0.30571  1.0000
  C   C54       1.0  0.41287  0.04777  0.08008  1.0000
  C   C55       1.0  0.08566  0.54372  0.41499  1.0000
  C   C56       1.0  0.46733  0.93132  0.22967  1.0000
  C   C57       1.0  0.03809  0.43189  0.28824  1.0000
  C   C58       1.0  0.43491  0.73610  0.33120  1.0000
  C   C59       1.0  0.06745  0.76899  0.17222  1.0000
  C   C60       1.0  0.43037  0.26761  0.32075  1.0000
  C   C61       1.0  0.56617  0.26820  0.17321  1.0000
  C   C62       1.0  0.25959  0.15035  0.19885  1.0000
  C   C63       1.0  0.73032  0.15623  0.30407  1.0000
  C   C64       1.0  0.73976  0.84938  0.31265  1.0000
  C   C65       1.0  0.23041  0.34540  0.28200  1.0000
  C   C66       1.0  0.75821  0.35146  0.17628  1.0000
  C   C67       1.0  0.23641  0.17713  0.21912  1.0000
  C   C68       1.0  0.75459  0.18246  0.27775  1.0000
  C   C69       1.0  0.76266  0.82236  0.29379  1.0000
  C   C70       1.0  0.25210  0.31898  0.25385  1.0000
  C   C71       1.0  0.73457  0.32443  0.19686  1.0000
  C   C72       1.0  0.25264  0.20642  0.18815  1.0000
  C   C73       1.0  0.74293  0.21163  0.31391  1.0000
  C   C74       1.0  0.74297  0.79325  0.31411  1.0000
  C   C75       1.0  0.24119  0.28961  0.29867  1.0000
  C   C76       1.0  0.75414  0.29540  0.18070  1.0000
  C   C77       1.0  0.28899  0.20713  0.12013  1.0000
  C   C78       1.0  0.71041  0.21254  0.39269  1.0000
  C   C79       1.0  0.70284  0.79290  0.36984  1.0000
  C   C80       1.0  0.21132  0.28834  0.38466  1.0000
  C   C81       1.0  0.79407  0.29541  0.12424  1.0000
  C   C82       1.0  0.31163  0.18041  0.09764  1.0000
  C   C83       1.0  0.68697  0.18622  0.42211  1.0000
  C   C84       1.0  0.68049  0.81986  0.39129  1.0000
  C   C85       1.0  0.19093  0.31479  0.41695  1.0000
  C   C86       1.0  0.81733  0.32242  0.10171  1.0000
  H   H21       1.0  0.38060  0.06111  0.41233  1.0000
  H   H22       1.0  0.11608  0.57143  0.08822  1.0000
  H   H23       1.0  0.31896  0.95624  0.14135  1.0000
  H   H24       1.0  0.17866  0.45678  0.30912  1.0000
  H   H25       1.0  0.34806  0.08053  0.96341  1.0000
  H   H26       1.0  0.15068  0.57330  0.54217  1.0000
  H   H27       1.0  0.43989  0.88522  0.22868  1.0000
  H   H28       1.0  0.06777  0.38577  0.30896  1.0000
  H   H29       1.0  0.42138  0.04387  0.98611  1.0000
  H   H30       1.0  0.07756  0.53582  0.50725  1.0000
  H   H31       1.0  0.50853  0.92326  0.25599  1.0000
  H   H32       1.0  0.99906  0.42403  0.28226  1.0000
  H   H33       1.0  0.24833  0.12811  0.22963  1.0000
  H   H34       1.0  0.73714  0.13419  0.26784  1.0000
  H   H35       1.0  0.75425  0.87148  0.29081  1.0000
  H   H36       1.0  0.23728  0.36772  0.24109  1.0000
  H   H37       1.0  0.74422  0.37345  0.19570  1.0000
  H   H38       1.0  0.20597  0.17518  0.26298  1.0000
  H   H39       1.0  0.78127  0.18033  0.22269  1.0000
  H   H40       1.0  0.79576  0.82382  0.25950  1.0000
  H   H41       1.0  0.27673  0.32120  0.19244  1.0000
  H   H42       1.0  0.70123  0.32580  0.23002  1.0000
  H   H43       1.0  0.33978  0.18168  0.04557  1.0000
  H   H44       1.0  0.66158  0.18756  0.48190  1.0000
  H   H45       1.0  0.64951  0.81871  0.43410  1.0000
  H   H46       1.0  0.16846  0.31329  0.48482  1.0000
  H   H47       1.0  0.84845  0.32156  0.05954  1.0000
  C   C87       1.0  0.26212  0.26124  0.26127  1.0000
  C   C88       1.0  0.73347  0.26660  0.22213  1.0000
  C   C89       1.0  0.76452  0.76466  0.28067  1.0000
  C   C90       1.0  0.23614  0.76198  0.23619  1.0000
  C   C91       1.0  0.73536  0.73815  0.24295  1.0000
  C   C92       1.0  0.26760  0.73567  0.28354  1.0000
  C   C93       1.0  0.23180  0.23508  0.22342  1.0000
  C   C94       1.0  0.76432  0.24002  0.27069  1.0000
  H   H48       1.0  0.14814  0.73489  0.03516  1.0000
  H   H49       1.0  0.64757  0.23678  0.03097  1.0000
  H   H50       1.0  0.35128  0.23338  0.47097  1.0000
  H   H51       1.0  0.35252  0.76617  0.47366  1.0000
  H   H52       1.0  0.70319  0.23426  0.43005  1.0000
  H   H53       1.0  0.29910  0.22896  0.08346  1.0000
  H   H54       1.0  0.80713  0.27397  0.09817  1.0000
  H   H55       1.0  0.20472  0.26631  0.42774  1.0000
  H   H56       1.0  0.68921  0.77115  0.39686  1.0000
  H   H57       1.0  0.02477  0.77136  0.15323  1.0000
  H   H58       1.0  0.97228  0.76291  0.32776  1.0000
  H   H59       1.0  0.52397  0.26857  0.16016  1.0000
  H   H60       1.0  0.47291  0.26958  0.33800  1.0000
  H   H61       1.0  0.97525  0.23331  0.34667  1.0000
  H   H62       1.0  0.02219  0.23291  0.16216  1.0000
  H   H63       1.0  0.47705  0.73636  0.34364  1.0000
  H   H64       1.0  0.52434  0.72396  0.15367  1.0000
  H   H65       1.0  0.38687  0.99491  0.16372  1.0000
  H   H66       1.0  0.10991  0.49549  0.28152  1.0000
  H   H67       1.0  0.45467  0.02480  0.43505  1.0000
  H   H68       1.0  0.04133  0.53500  0.05250  1.0000
  C   C95       1.0  0.00007  0.48512  0.24757  1.0000
  C   C96       1.0  0.50071  0.98503  0.24087  1.0000
  C   C97       1.0  0.00150  0.51663  0.24782  1.0000
  C   C98       1.0  0.49727  0.01653  0.23886  1.0000
  N   N9        1.0  0.33557  0.10343  0.68191  1.0000
  N   N10       1.0  0.67298  0.09761  0.81265  1.0000
  N   N11       1.0  0.82559  0.59548  0.68842  1.0000
  N   N12       1.0  0.16552  0.60465  0.83195  1.0000
  N   N13       1.0  0.66466  0.89270  0.81938  1.0000
  N   N14       1.0  0.32889  0.90104  0.68789  1.0000
  N   N15       1.0  0.17206  0.40023  0.80304  1.0000
  N   N16       1.0  0.83647  0.39464  0.67105  1.0000
  C   C99       1.0  0.33473  0.13026  0.62170  1.0000
  C   C100      1.0  0.67226  0.12163  0.88171  1.0000
  C   C101      1.0  0.83323  0.62241  0.64288  1.0000
  C   C102      1.0  0.16738  0.62969  0.89740  1.0000
  C   C103      1.0  0.66794  0.86658  0.88808  1.0000
  C   C104      1.0  0.33036  0.87615  0.62506  1.0000
  C   C105      1.0  0.16979  0.37453  0.86831  1.0000
  C   C106      1.0  0.83388  0.36937  0.60689  1.0000
  C   C107      1.0  0.30385  0.15613  0.63736  1.0000
  C   C108      1.0  0.69727  0.84050  0.86844  1.0000
  C   C109      1.0  0.29945  0.84918  0.63256  1.0000
  C   C110      1.0  0.80356  0.34319  0.62686  1.0000
  C   C111      1.0  0.39390  0.71749  0.72189  1.0000
  C   C112      1.0  0.89087  0.78407  0.70525  1.0000
  C   C113      1.0  0.38990  0.28356  0.70551  1.0000
  C   C114      1.0  0.33961  0.71936  0.70303  1.0000
  C   C115      1.0  0.83663  0.78086  0.68523  1.0000
  C   C116      1.0  0.33562  0.28204  0.68705  1.0000
  C   C117      1.0  0.32435  0.73688  0.79368  1.0000
  C   C118      1.0  0.82317  0.76316  0.78452  1.0000
  C   C119      1.0  0.32098  0.26449  0.78459  1.0000
  C   C120      1.0  0.36526  0.75290  0.90227  1.0000
  C   C121      1.0  0.86572  0.74858  0.90384  1.0000
  C   C122      1.0  0.36243  0.24818  0.89980  1.0000
  C   C123      1.0  0.41946  0.75154  0.91954  1.0000
  C   C124      1.0  0.91988  0.75133  0.92246  1.0000
  C   C125      1.0  0.41672  0.24954  0.91799  1.0000
  H   H69       1.0  0.35916  0.13501  0.55926  1.0000
  H   H70       1.0  0.64595  0.12332  0.94021  1.0000
  H   H71       1.0  0.86616  0.62643  0.60695  1.0000
  H   H72       1.0  0.14413  0.63270  0.96333  1.0000
  H   H73       1.0  0.64682  0.86246  0.95954  1.0000
  H   H74       1.0  0.35836  0.87324  0.57236  1.0000
  H   H75       1.0  0.14316  0.37166  0.92588  1.0000
  H   H76       1.0  0.85618  0.36611  0.53875  1.0000
  H   H77       1.0  0.40439  0.70399  0.64927  1.0000
  H   H78       1.0  0.89999  0.79773  0.62611  1.0000
  H   H79       1.0  0.39994  0.29697  0.62733  1.0000
  H   H80       1.0  0.30863  0.70802  0.61309  1.0000
  H   H81       1.0  0.80442  0.79130  0.58855  1.0000
  H   H82       1.0  0.30413  0.29387  0.59332  1.0000
  H   H83       1.0  0.45026  0.76446  0.00355  1.0000
  H   H84       1.0  0.95207  0.73951  0.01490  1.0000
  H   H85       1.0  0.44810  0.23670  0.00836  1.0000
  C   C126      1.0  0.45714  0.03658  0.72363  1.0000
  C   C127      1.0  0.94709  0.53131  0.72111  1.0000
  C   C128      1.0  0.44785  0.96672  0.71997  1.0000
  C   C129      1.0  0.05495  0.46705  0.77243  1.0000
  C   C130      1.0  0.40126  0.02912  0.67727  1.0000
  C   C131      1.0  0.92978  0.53387  0.83307  1.0000
  C   C132      1.0  0.43066  0.96118  0.83176  1.0000
  C   C133      1.0  0.06812  0.46155  0.65533  1.0000
  C   C134      1.0  0.36153  0.05089  0.66275  1.0000
  C   C135      1.0  0.88664  0.55345  0.81657  1.0000
  C   C136      1.0  0.38897  0.94077  0.81559  1.0000
  C   C137      1.0  0.11001  0.44115  0.67111  1.0000
  C   C138      1.0  0.37474  0.08192  0.68739  1.0000
  C   C139      1.0  0.86152  0.57207  0.68898  1.0000
  C   C140      1.0  0.36445  0.92464  0.68778  1.0000
  C   C141      1.0  0.13809  0.42455  0.80366  1.0000
  C   C142      1.0  0.42960  0.08999  0.72863  1.0000
  C   C143      1.0  0.87559  0.56774  0.57183  1.0000
  C   C144      1.0  0.37837  0.93202  0.57083  1.0000
  C   C145      1.0  0.12847  0.43200  0.92483  1.0000
  C   C146      1.0  0.46931  0.06803  0.74673  1.0000
  C   C147      1.0  0.91791  0.54746  0.58836  1.0000
  C   C148      1.0  0.41974  0.95277  0.58738  1.0000
  C   C149      1.0  0.08738  0.45316  0.90880  1.0000
  C   C150      1.0  0.43405  0.73364  0.82992  1.0000
  C   C151      1.0  0.93278  0.76922  0.82379  1.0000
  C   C152      1.0  0.43076  0.26738  0.82136  1.0000
  C   C153      1.0  0.27155  0.15361  0.71626  1.0000
  C   C154      1.0  0.72749  0.84300  0.78392  1.0000
  C   C155      1.0  0.25987  0.84963  0.68941  1.0000
  C   C156      1.0  0.77485  0.34434  0.71504  1.0000
  C   C157      1.0  0.24732  0.17943  0.74133  1.0000
  C   C158      1.0  0.75065  0.81720  0.75560  1.0000
  C   C159      1.0  0.23723  0.82254  0.71372  1.0000
  C   C160      1.0  0.75174  0.31815  0.74642  1.0000
  C   C161      1.0  0.25579  0.20903  0.69343  1.0000
  C   C162      1.0  0.74293  0.78762  0.80524  1.0000
  C   C163      1.0  0.25424  0.79369  0.68775  1.0000
  C   C164      1.0  0.75790  0.28946  0.69578  1.0000
  C   C165      1.0  0.28551  0.21107  0.60715  1.0000
  C   C166      1.0  0.71470  0.78552  0.89514  1.0000
  C   C167      1.0  0.29011  0.79386  0.61839  1.0000
  C   C168      1.0  0.78387  0.28888  0.60057  1.0000
  C   C169      1.0  0.30888  0.18520  0.57936  1.0000
  C   C170      1.0  0.69272  0.81141  0.92709  1.0000
  C   C171      1.0  0.31204  0.82095  0.59104  1.0000
  C   C172      1.0  0.80602  0.31521  0.56611  1.0000
  H   H86       1.0  0.31934  0.04405  0.62960  1.0000
  H   H87       1.0  0.87438  0.55596  0.90513  1.0000
  H   H88       1.0  0.37710  0.93573  0.90435  1.0000
  H   H89       1.0  0.11897  0.43635  0.57895  1.0000
  H   H90       1.0  0.44126  0.11365  0.75234  1.0000
  H   H91       1.0  0.85416  0.58061  0.46912  1.0000
  H   H92       1.0  0.35755  0.92105  0.46819  1.0000
  H   H93       1.0  0.15212  0.42067  0.03033  1.0000
  H   H94       1.0  0.51100  0.07560  0.78101  1.0000
  H   H95       1.0  0.92971  0.54498  0.49888  1.0000
  H   H96       1.0  0.43148  0.95731  0.49786  1.0000
  H   H97       1.0  0.07898  0.45791  0.00206  1.0000
  H   H98       1.0  0.26664  0.13109  0.75915  1.0000
  H   H99       1.0  0.73169  0.86552  0.73989  1.0000
  H   H100      1.0  0.24835  0.87143  0.71759  1.0000
  H   H101      1.0  0.77230  0.36601  0.76106  1.0000
  H   H102      1.0  0.22310  0.17666  0.80372  1.0000
  H   H103      1.0  0.77380  0.82004  0.69038  1.0000
  H   H104      1.0  0.20714  0.82375  0.75858  1.0000
  H   H105      1.0  0.73039  0.31989  0.81593  1.0000
  H   H106      1.0  0.33135  0.18730  0.51166  1.0000
  H   H107      1.0  0.67147  0.80920  0.99782  1.0000
  H   H108      1.0  0.33994  0.82026  0.53834  1.0000
  H   H109      1.0  0.82582  0.31420  0.49207  1.0000
  C   C173      1.0  0.26314  0.26324  0.76996  1.0000
  C   C174      1.0  0.73671  0.26086  0.73826  1.0000
  C   C175      1.0  0.76534  0.75994  0.76716  1.0000
  C   C176      1.0  0.23473  0.76464  0.73075  1.0000
  C   C177      1.0  0.73590  0.73351  0.72709  1.0000
  C   C178      1.0  0.26644  0.73841  0.77756  1.0000
  C   C179      1.0  0.23350  0.23690  0.73069  1.0000
  C   C180      1.0  0.76735  0.23426  0.78091  1.0000
  H   H110      1.0  0.85636  0.73494  0.98247  1.0000
  H   H111      1.0  0.35204  0.23450  0.97646  1.0000
  H   H112      1.0  0.35453  0.76645  0.97411  1.0000
  H   H113      1.0  0.28996  0.23322  0.56100  1.0000
  H   H114      1.0  0.78652  0.26743  0.55367  1.0000
  H   H115      1.0  0.30095  0.77242  0.58636  1.0000
  H   H116      1.0  0.71048  0.76332  0.94127  1.0000
  H   H117      1.0  0.02318  0.76668  0.65159  1.0000
  H   H118      1.0  0.97507  0.77162  0.83948  1.0000
  H   H119      1.0  0.52424  0.27037  0.64371  1.0000
  H   H120      1.0  0.47308  0.26869  0.83600  1.0000
  H   H121      1.0  0.97606  0.23400  0.83563  1.0000
  H   H122      1.0  0.02318  0.23197  0.66124  1.0000
  H   H123      1.0  0.47621  0.73240  0.84312  1.0000
  H   H124      1.0  0.52635  0.73076  0.66562  1.0000
  H   H125      1.0  0.45085  0.97250  0.93347  1.0000
  H   H126      1.0  0.04469  0.47297  0.55013  1.0000
  H   H127      1.0  0.38819  0.00584  0.65204  1.0000
  H   H128      1.0  0.95094  0.52076  0.93503  1.0000
  C   C181      1.0  0.00271  0.48358  0.74538  1.0000
  C   C182      1.0  0.49988  0.98319  0.74842  1.0000
  C   C183      1.0  0.99954  0.51500  0.74848  1.0000
  C   C184      1.0  0.50296  0.01465  0.75021  1.0000
  C   C185      1.0  0.59431  0.75440  0.57921  1.0000
  C   C186      1.0  0.57035  0.73582  0.65155  1.0000
  C  Sn1       1.0  0.60254  0.71564  0.76564  1.0000
  C  Sn2       1.0  0.65976  0.71410  0.80787  1.0000
  C   C187      1.0  0.68334  0.73280  0.73487  1.0000
  C   C188      1.0  0.65075  0.75291  0.62083  1.0000
  H   H129      1.0  0.56910  0.76997  0.49102  1.0000
  O  Te1       1.0  0.57794  0.69723  0.83672  1.0000
  O  Te2       1.0  0.69289  0.69415  0.92156  1.0000
  H   H130      1.0  0.66931  0.76731  0.56490  1.0000
  Mg  Mg1       1.0  0.64031  0.67368  0.98507  1.0000
  C   C189      1.0  0.88075  0.21378  0.69983  1.0000
  C   C190      1.0  0.92507  0.23027  0.79275  1.0000
  C  Sn3       1.0  0.91927  0.24884  0.89429  1.0000
  C  Sn4       1.0  0.86811  0.25090  0.90274  1.0000
  C   C191      1.0  0.82404  0.23430  0.80937  1.0000
  C   C192      1.0  0.83029  0.21579  0.70813  1.0000
  H   H131      1.0  0.88559  0.19945  0.62155  1.0000
  O  Te3       1.0  0.96396  0.26517  0.98626  1.0000
  O  Te4       1.0  0.70491  0.27910  0.00326  1.0000
  H   H132      1.0  0.79598  0.20301  0.63626  1.0000
  Mg  Mg2       1.0  0.77794  0.29696  0.10511  1.0000
  C   C193      1.0  0.62053  0.75051  0.07801  1.0000
  C   C194      1.0  0.66779  0.73985  0.19541  1.0000
  C  Sn5       1.0  0.66402  0.72105  0.30572  1.0000
  C  Sn6       1.0  0.61193  0.71281  0.29804  1.0000
  C   C195      1.0  0.56490  0.72357  0.18009  1.0000
  C   C196      1.0  0.56914  0.74238  0.07032  1.0000
  H   H133      1.0  0.78008  0.75523  0.99303  1.0000
  O  Te5       1.0  0.71165  0.71061  0.42227  1.0000
  O  Te6       1.0  0.60700  0.69404  0.40678  1.0000
  H   H134      1.0  0.68882  0.74079  0.97940  1.0000
  Mg  Mg3       1.0  0.68380  0.68558  0.54372  1.0000
  C   C197      1.0  0.86548  0.45612  0.65777  1.0000
  C   C198      1.0  0.86988  0.42419  0.66395  1.0000
  C  Sn7       1.0  0.92050  0.40990  0.70035  1.0000
  C  Sn8       1.0  0.96752  0.42797  0.73114  1.0000
  C   C199      1.0  0.96270  0.45991  0.72476  1.0000
  C   C200      1.0  0.91185  0.47397  0.68817  1.0000
  H   H135      1.0  0.82614  0.46701  0.62954  1.0000
  O  Te7       1.0  0.92416  0.37796  0.70597  1.0000
  O  Te8       1.0  0.01862  0.41428  0.76786  1.0000
  H   H136      1.0  0.90846  0.49870  0.68349  1.0000
  Mg  Mg4       1.0  0.00279  0.36996  0.76116  1.0000
  C   C201      1.0  0.14847  0.21376  0.31840  1.0000
  C   C202      1.0  0.17112  0.22882  0.23256  1.0000
  C  Sn9       1.0  0.13865  0.24803  0.11452  1.0000
  C  Sn10      1.0  0.08248  0.25221  0.08211  1.0000
  C   C203      1.0  0.06022  0.23705  0.16870  1.0000
  C   C204      1.0  0.09308  0.21787  0.28654  1.0000
  H   H137      1.0  0.17389  0.19893  0.40962  1.0000
  O  Te9       1.0  0.16193  0.26290  0.02986  1.0000
  O  Te10      1.0  0.20539  0.26146  0.96481  1.0000
  H   H138      1.0  0.07554  0.20622  0.35303  1.0000
  Mg  Mg5       1.0  0.25600  0.27673  0.88149  1.0000
  C   C205      1.0  0.87565  0.74222  0.41537  1.0000
  C   C206      1.0  0.83197  0.76118  0.32534  1.0000
  C  Sn11      1.0  0.83765  0.78134  0.22199  1.0000
  C  Sn12      1.0  0.88805  0.78250  0.20876  1.0000
  C   C207      1.0  0.93149  0.76342  0.29927  1.0000
  C   C208      1.0  0.92537  0.74333  0.40235  1.0000
  H   H139      1.0  0.87091  0.72667  0.49507  1.0000
  O  Te11      1.0  0.79360  0.80013  0.13296  1.0000
  O  Te12      1.0  0.89484  0.80243  0.10635  1.0000
  H   H140      1.0  0.95919  0.72864  0.47197  1.0000
  Mg  Mg6       1.0  0.82285  0.82349  0.00990  1.0000
  C   C209      1.0  0.75306  0.67233  0.26123  1.0000
  C   C210      1.0  0.75548  0.70304  0.22014  1.0000
  C  Sn13      1.0  0.77985  0.71103  0.12614  1.0000
  C  Sn14      1.0  0.80217  0.68779  0.07242  1.0000
  C   C211      1.0  0.79951  0.65713  0.11410  1.0000
  C   C212      1.0  0.77505  0.64939  0.20825  1.0000
  H   H141      1.0  0.73411  0.66633  0.33402  1.0000
  O  Te13      1.0  0.78194  0.74183  0.08623  1.0000
  O  Te14      1.0  0.98302  0.68531  0.97829  1.0000
  H   H142      1.0  0.77315  0.62561  0.23997  1.0000
  Mg  Mg7       1.0  0.97592  0.73053  0.95543  1.0000
  C   C213      1.0  0.11358  0.53124  0.80696  1.0000
  C   C214      1.0  0.06041  0.53426  0.79653  1.0000
  C  Sn15      1.0  0.03813  0.56326  0.79347  1.0000
  C  Sn16      1.0  0.06976  0.58968  0.80097  1.0000
  C   C215      1.0  0.12290  0.58642  0.81128  1.0000
  C   C216      1.0  0.14479  0.55730  0.81431  1.0000
  H   H143      1.0  0.13051  0.50871  0.80922  1.0000
  O  Te15      1.0  0.98496  0.56586  0.78307  1.0000
  O  Te16      1.0  0.04850  0.61894  0.79807  1.0000
  H   H144      1.0  0.18595  0.55497  0.82229  1.0000
  Mg  Mg8       1.0  0.97405  0.61067  0.78298  1.0000
  C   C217      1.0  0.19081  0.68835  0.42628  1.0000
  C   C218      1.0  0.19666  0.65846  0.39049  1.0000
  C  Sn17      1.0  0.23289  0.65198  0.32858  1.0000
  C  Sn18      1.0  0.26378  0.67591  0.30219  1.0000
  C   C219      1.0  0.25765  0.70573  0.33849  1.0000
  C   C220      1.0  0.22128  0.71197  0.40034  1.0000
  H   H145      1.0  0.16269  0.69318  0.47421  1.0000
  O  Te17      1.0  0.23822  0.62199  0.29343  1.0000
  O  Te18      1.0  0.30029  0.67007  0.24049  1.0000
  H   H146      1.0  0.21678  0.73511  0.42813  1.0000
  Mg  Mg9       1.0  0.29324  0.62548  0.21139  1.0000
  C   C221      1.0  0.62128  0.28463  0.80357  1.0000
  C   C222      1.0  0.57545  0.27422  0.68762  1.0000
  C  Sn19      1.0  0.58169  0.25580  0.58620  1.0000
  C  Sn20      1.0  0.63483  0.24767  0.60144  1.0000
  C   C223      1.0  0.68042  0.25819  0.71788  1.0000
  C   C224      1.0  0.67371  0.27662  0.81872  1.0000
  H   H147      1.0  0.61609  0.29888  0.88164  1.0000
  O  Te19      1.0  0.53546  0.24561  0.47097  1.0000
  O  Te20      1.0  0.64223  0.22928  0.50167  1.0000
  H   H148      1.0  0.70920  0.28466  0.90853  1.0000
  Mg  Mg10      1.0  0.56659  0.22105  0.36301  1.0000
  C   C225      1.0  0.25980  0.84238  0.21578  1.0000
  C   C226      1.0  0.29637  0.84526  0.15074  1.0000
  C  Sn21      1.0  0.31002  0.81987  0.09271  1.0000
  C  Sn22      1.0  0.28654  0.79109  0.10005  1.0000
  C   C227      1.0  0.24997  0.78846  0.16525  1.0000
  C   C228      1.0  0.23661  0.81401  0.22302  1.0000
  H   H149      1.0  0.24943  0.86216  0.26041  1.0000
  O  Te21      1.0  0.34664  0.82314  0.02816  1.0000
  O  Te22      1.0  0.29946  0.76534  0.04286  1.0000
  H   H150      1.0  0.20827  0.81178  0.27328  1.0000
  Mg  Mg11      1.0  0.50774  0.77153  0.96573  1.0000
  C   C229      1.0  0.55533  0.09035  0.25809  1.0000
  C   C230      1.0  0.61198  0.08691  0.31126  1.0000
  C  Sn23      1.0  0.63612  0.05770  0.34085  1.0000
  C  Sn24      1.0  0.60282  0.03148  0.31662  1.0000
  C   C231      1.0  0.54618  0.03516  0.26331  1.0000
  C   C232      1.0  0.52245  0.06450  0.23411  1.0000
  H   H151      1.0  0.53696  0.11304  0.23542  1.0000
  O  Te23      1.0  0.69279  0.05467  0.39397  1.0000
  O  Te24      1.0  0.62588  0.00202  0.34523  1.0000
  H   H152      1.0  0.47858  0.06715  0.19286  1.0000
  Mg  Mg12      1.0  0.70505  0.00972  0.41650  1.0000
  C   C233      1.0  0.25360  0.67236  0.77589  1.0000
  C   C234      1.0  0.24953  0.70259  0.81045  1.0000
  C  Sn25      1.0  0.22046  0.70954  0.89204  1.0000
  C  Sn26      1.0  0.19504  0.68573  0.93981  1.0000
  C   C235      1.0  0.19939  0.65556  0.90476  1.0000
  C   C236      1.0  0.22856  0.64887  0.82301  1.0000
  H   H153      1.0  0.27620  0.66717  0.71271  1.0000
  O  Te25      1.0  0.21678  0.73986  0.92555  1.0000
  O  Te26      1.0  0.00948  0.70186  0.02156  1.0000
  H   H154      1.0  0.23174  0.62546  0.79636  1.0000
  Mg  Mg13      1.0  0.01607  0.74678  0.03962  1.0000
  C   C237      1.0  0.87868  0.21585  0.20228  1.0000
  C   C238      1.0  0.92403  0.23071  0.30091  1.0000
  C  Sn27      1.0  0.91857  0.24942  0.40249  1.0000
  C  Sn28      1.0  0.86671  0.25326  0.40515  1.0000
  C   C239      1.0  0.82160  0.23828  0.30609  1.0000
  C   C240      1.0  0.82751  0.21962  0.20487  1.0000
  H   H155      1.0  0.88325  0.20140  0.12401  1.0000
  O  Te27      1.0  0.96430  0.26410  0.50022  1.0000
  O  Te28      1.0  0.86011  0.27182  0.50558  1.0000
  H   H156      1.0  0.79240  0.20810  0.12858  1.0000
  Mg  Mg14      1.0  0.93464  0.28703  0.61649  1.0000
  C   C241      1.0  0.81145  0.70158  0.64046  1.0000
  C   C242      1.0  0.76518  0.70570  0.66768  1.0000
  C  Sn29      1.0  0.73753  0.68036  0.69062  1.0000
  C  Sn30      1.0  0.75666  0.65037  0.68621  1.0000
  C   C243      1.0  0.80302  0.64649  0.65900  1.0000
  C   C244      1.0  0.83037  0.67201  0.63615  1.0000
  H   H157      1.0  0.83263  0.72132  0.62285  1.0000
  O  Te29      1.0  0.69135  0.68488  0.71763  1.0000
  O  Te30      1.0  0.72982  0.62464  0.70882  1.0000
  H   H158      1.0  0.86621  0.66882  0.61517  1.0000
  Mg  Mg15      1.0  0.66870  0.64260  0.74164  1.0000
  C   C245      1.0  0.76282  0.16781  0.78956  1.0000
  C   C246      1.0  0.75222  0.19791  0.81286  1.0000
  C  Sn31      1.0  0.71639  0.20384  0.87669  1.0000
  C  Sn32      1.0  0.69077  0.17912  0.91787  1.0000
  C   C247      1.0  0.70168  0.14909  0.89418  1.0000
  C   C248      1.0  0.73758  0.14342  0.83019  1.0000
  H   H159      1.0  0.79062  0.16342  0.74012  1.0000
  O  Te31      1.0  0.70624  0.23405  0.89914  1.0000
  O  Te32      1.0  0.65481  0.18439  0.98191  1.0000
  H   H160      1.0  0.74581  0.12011  0.81225  1.0000
  Mg  Mg16      1.0  0.65407  0.22957  0.99010  1.0000
  C   C249      1.0  0.60234  0.04427  0.94002  1.0000
  C   C250      1.0  0.56291  0.03292  0.81296  1.0000
  C  Sn33      1.0  0.56372  0.04077  0.67892  1.0000
  C  Sn34      1.0  0.60481  0.06035  0.67231  1.0000
  C   C251      1.0  0.64410  0.07157  0.80006  1.0000
  C   C252      1.0  0.64290  0.06358  0.93361  1.0000
  H   H161      1.0  0.44516  0.04790  0.04336  1.0000
  O  Te33      1.0  0.52400  0.02923  0.55302  1.0000
  O  Te34      1.0  0.60658  0.06856  0.53979  1.0000
  H   H162      1.0  0.51718  0.08218  0.03198  1.0000
  Mg  Mg17      1.0  0.54353  0.04699  0.39822  1.0000
  C   C253      1.0  0.90085  0.44710  0.34001  1.0000
  C   C254      1.0  0.86612  0.43258  0.21585  1.0000
  C  Sn35      1.0  0.87433  0.43544  0.08869  1.0000
  C  Sn36      1.0  0.91816  0.45316  0.08613  1.0000
  C   C255      1.0  0.95270  0.46758  0.21094  1.0000
  C   C256      1.0  0.94410  0.46458  0.33759  1.0000
  H   H163      1.0  0.89422  0.44476  0.43802  1.0000
  O  Te35      1.0  0.99551  0.41096  0.96561  1.0000
  O  Te36      1.0  0.08359  0.44657  0.96051  1.0000
  H   H164      1.0  0.97102  0.47580  0.43373  1.0000
  Mg  Mg18      1.0  0.02467  0.42222  0.82044  1.0000
  C   C257      1.0  0.18347  0.30959  0.89646  1.0000
  C   C258      1.0  0.19672  0.34000  0.87924  1.0000
  C  Sn37      1.0  0.23390  0.34687  0.81922  1.0000
  C  Sn38      1.0  0.25818  0.32279  0.77571  1.0000
  C   C259      1.0  0.24462  0.29245  0.79330  1.0000
  C   C260      1.0  0.20738  0.28583  0.85352  1.0000
  H   H165      1.0  0.15463  0.30447  0.94298  1.0000
  O  Te37      1.0  0.24670  0.37737  0.80283  1.0000
  O  Te38      1.0  0.29545  0.32901  0.71537  1.0000
  H   H166      1.0  0.19710  0.26229  0.86676  1.0000
  Mg  Mg19      1.0  0.29980  0.37425  0.71513  1.0000
  C   C261      1.0  0.96022  0.57830  0.21284  1.0000
  C   C262      1.0  0.95838  0.54636  0.22343  1.0000
  C  Sn39      1.0  0.90975  0.53191  0.20499  1.0000
  C  Sn40      1.0  0.86213  0.54982  0.17538  1.0000
  C   C263      1.0  0.86438  0.58176  0.16490  1.0000
  C   C264      1.0  0.91327  0.59598  0.18358  1.0000
  H   H167      1.0  0.99804  0.58930  0.22722  1.0000
  O  Te39      1.0  0.90863  0.49998  0.21598  1.0000
  O  Te40      1.0  0.81298  0.53597  0.15642  1.0000
  H   H168      1.0  0.91467  0.62071  0.17528  1.0000
  Mg  Mg20      1.0  0.83198  0.49172  0.18167  1.0000
  C   C265      1.0  0.09060  0.25398  0.56892  1.0000
  C   C266      1.0  0.06708  0.23662  0.64637  1.0000
  C  Sn41      1.0  0.09987  0.21841  0.76808  1.0000
  C  Sn42      1.0  0.15727  0.21762  0.81284  1.0000
  C   C267      1.0  0.18040  0.23508  0.73468  1.0000
  C   C268      1.0  0.14721  0.25322  0.61302  1.0000
  H   H169      1.0  0.06492  0.26802  0.47484  1.0000
  O  Te41      1.0  0.07570  0.20120  0.84419  1.0000
  O  Te42      1.0  0.19100  0.19962  0.93411  1.0000
  H   H170      1.0  0.16543  0.26667  0.55313  1.0000
  Mg  Mg21      1.0  0.98256  0.19005  0.00232  1.0000
  C   C269      1.0  0.09361  0.74586  0.57205  1.0000
  C   C270      1.0  0.06930  0.75936  0.65351  1.0000
  C  Sn43      1.0  0.09998  0.77755  0.76844  1.0000
  C  Sn44      1.0  0.15601  0.78228  0.80216  1.0000
  C   C271      1.0  0.17994  0.76870  0.71995  1.0000
  C   C272      1.0  0.14887  0.75053  0.60520  1.0000
  H   H171      1.0  0.06957  0.73182  0.48321  1.0000
  O  Te43      1.0  0.07506  0.79085  0.84874  1.0000
  O  Te44      1.0  0.18761  0.80036  0.91642  1.0000
  H   H172      1.0  0.16769  0.74010  0.54209  1.0000
  Mg  Mg22      1.0  0.13517  0.81360  0.99417  1.0000
  C   C273      1.0  0.56179  0.90908  0.81113  1.0000
  C   C274      1.0  0.61309  0.91192  0.80861  1.0000
  C  Sn45      1.0  0.63386  0.94088  0.79951  1.0000
  C  Sn46      1.0  0.60260  0.96745  0.79287  1.0000
  C   C275      1.0  0.55134  0.96437  0.79557  1.0000
  C   C276      1.0  0.53095  0.93528  0.80465  1.0000
  H   H173      1.0  0.54602  0.88657  0.81824  1.0000
  O  Te45      1.0  0.68518  0.94330  0.79705  1.0000
  O  Te46      1.0  0.61788  0.99668  0.78378  1.0000
  H   H174      1.0  0.49124  0.93309  0.80670  1.0000
  Mg  Mg23      1.0  0.69454  0.98814  0.78375  1.0000
  C   C277      1.0  0.61941  0.93827  0.43945  1.0000
  C   C278      1.0  0.63497  0.92715  0.33487  1.0000
  C  Sn47      1.0  0.61036  0.93884  0.19158  1.0000
  C  Sn48      1.0  0.56944  0.96209  0.15261  1.0000
  C   C279      1.0  0.55419  0.97307  0.25806  1.0000
  C   C280      1.0  0.57907  0.96121  0.40112  1.0000
  H   H175      1.0  0.63868  0.92910  0.55016  1.0000
  O  Te47      1.0  0.62638  0.92747  0.08844  1.0000
  O  Te48      1.0  0.54420  0.97419  0.01020  1.0000
  H   H176      1.0  0.56704  0.96984  0.48209  1.0000
  Mg  Mg24      1.0  0.73626  0.94141  0.90851  1.0000
