data_image0
_chemical_formula_structural       N8C94N8H76C4N8C82N8H68C6Sn2C2HTe2HMgC2Sn2C2HTe2HMgC2Sn2C2HTe2HMgC2Sn2C2HTe2HMgC2Sn2C2HTe2HMgC2Sn2C2HTe2HMgC2Sn2C2HTe2HMgC2Sn2C2HTe2HMgC2Sn2C2HTe2HMgC2Sn2C2HTe2HMgC2Sn2C2HTe2HMgC2Sn2C2HTe2HMgC2Sn2C2HTe2HMgC2Sn2C2HTe2HMgC2Sn2C2HTe2HMgC2Sn2C2HTe2HMgC2Sn2C2HTe2HMgC2Sn2C2HTe2HMgC2Sn2C2HTe2HMgC2Sn2C2HTe2HMgC2Sn2C2HTe2HMgC2Sn2C2HTe2HMgC2Sn2C2HTe2HMgC2Sn2C2HTe2HMg
_chemical_formula_sum              "N32 C280 H192 Sn48 Te48 Mg24"
_cell_length_a       30.1121
_cell_length_b       42.2755
_cell_length_c       10.6526
_cell_angle_alpha    90.7073
_cell_angle_beta     102.434
_cell_angle_gamma    89.9932

_symmetry_space_group_name_H-M    'P1'
_space_group_IT_number       1

loop_
  _space_group_symop_operation_xyz
  'x, y, z'

loop_
  _atom_site_type_symbol
  _atom_site_label
  _atom_site_symmetry_multiplicity
  _atom_site_fract_x
  _atom_site_fract_y
  _atom_site_fract_z
  _atom_site_occupancy
  N   N1        1.0  0.35458  0.10393  0.22443  1.0000
  N   N2        1.0  0.64434  0.10568  0.26682  1.0000
  N   N3        1.0  0.85810  0.60716  0.23594  1.0000
  N   N4        1.0  0.15051  0.60119  0.25558  1.0000
  N   N5        1.0  0.65052  0.89834  0.27729  1.0000
  N   N6        1.0  0.35623  0.89491  0.23156  1.0000
  N   N7        1.0  0.14584  0.39536  0.27441  1.0000
  N   N8        1.0  0.85367  0.39784  0.23139  1.0000
  C   C1        1.0  0.35077  0.12899  0.15432  1.0000
  C   C2        1.0  0.64850  0.13046  0.34066  1.0000
  C   C3        1.0  0.84726  0.62900  0.15089  1.0000
  C   C4        1.0  0.15344  0.62581  0.33021  1.0000
  C   C5        1.0  0.66039  0.87586  0.36004  1.0000
  C   C6        1.0  0.34590  0.87239  0.14681  1.0000
  C   C7        1.0  0.15412  0.37236  0.35513  1.0000
  C   C8        1.0  0.84988  0.37329  0.15600  1.0000
  C   C9        1.0  0.18380  0.34625  0.33591  1.0000
  C   C10       1.0  0.13547  0.20918  0.36823  1.0000
  C   C11       1.0  0.36720  0.71053  0.13970  1.0000
  C   C12       1.0  0.86748  0.79010  0.12884  1.0000
  C   C13       1.0  0.13334  0.79226  0.35188  1.0000
  C   C14       1.0  0.63453  0.29291  0.36112  1.0000
  C   C15       1.0  0.18056  0.21342  0.35930  1.0000
  C   C16       1.0  0.32183  0.71484  0.14603  1.0000
  C   C17       1.0  0.82234  0.78747  0.13924  1.0000
  C   C18       1.0  0.17926  0.78806  0.35176  1.0000
  C   C19       1.0  0.68002  0.28943  0.35448  1.0000
  C   C20       1.0  0.19188  0.23049  0.25808  1.0000
  C   C21       1.0  0.30979  0.73056  0.25090  1.0000
  C   C22       1.0  0.81014  0.77028  0.23888  1.0000
  C   C23       1.0  0.19322  0.76936  0.25718  1.0000
  C   C24       1.0  0.69273  0.27148  0.25585  1.0000
  C   C25       1.0  0.15599  0.24386  0.16807  1.0000
  C   C26       1.0  0.34526  0.74235  0.34792  1.0000
  C   C27       1.0  0.84542  0.75571  0.32721  1.0000
  C   C28       1.0  0.15902  0.75485  0.16356  1.0000
  C   C29       1.0  0.65770  0.25710  0.16448  1.0000
  C   C30       1.0  0.11078  0.23994  0.17662  1.0000
  C   C31       1.0  0.39077  0.73834  0.34220  1.0000
  C   C32       1.0  0.89069  0.75782  0.31642  1.0000
  C   C33       1.0  0.11306  0.75901  0.16251  1.0000
  C   C34       1.0  0.61216  0.26038  0.17042  1.0000
  C   C35       1.0  0.46000  0.03642  0.24085  1.0000
  C   C36       1.0  0.54266  0.03663  0.26618  1.0000
  C   C37       1.0  0.96153  0.53863  0.23454  1.0000
  C   C38       1.0  0.04452  0.53552  0.25336  1.0000
  C   C39       1.0  0.54318  0.96368  0.27680  1.0000
  C   C40       1.0  0.04068  0.46329  0.26824  1.0000
  C   C41       1.0  0.95731  0.46626  0.24400  1.0000
  C   C42       1.0  0.43355  0.03874  0.33408  1.0000
  C   C43       1.0  0.55577  0.04601  0.15317  1.0000
  C   C44       1.0  0.92203  0.53219  0.28166  1.0000
  C   C45       1.0  0.05876  0.54355  0.14043  1.0000
  C   C46       1.0  0.58344  0.97223  0.23747  1.0000
  C   C47       1.0  0.08317  0.47112  0.23961  1.0000
  C   C48       1.0  0.94048  0.45843  0.35291  1.0000
  C   C49       1.0  0.39789  0.06023  0.32233  1.0000
  C   C50       1.0  0.59046  0.06791  0.15765  1.0000
  C   C51       1.0  0.88813  0.55461  0.27880  1.0000
  C   C52       1.0  0.09528  0.56400  0.14451  1.0000
  C   C53       1.0  0.61893  0.95093  0.24158  1.0000
  C   C54       1.0  0.11743  0.44887  0.24441  1.0000
  C   C55       1.0  0.90469  0.43708  0.34383  1.0000
  C   C56       1.0  0.38817  0.08125  0.21903  1.0000
  C   C57       1.0  0.61212  0.08224  0.27476  1.0000
  C   C58       1.0  0.89102  0.58466  0.22555  1.0000
  C   C59       1.0  0.11757  0.57805  0.26167  1.0000
  C   C60       1.0  0.61635  0.91998  0.28698  1.0000
  C   C61       1.0  0.11200  0.41746  0.28120  1.0000
  C   C62       1.0  0.88600  0.42150  0.22672  1.0000
  C   C63       1.0  0.41387  0.07868  0.12319  1.0000
  C   C64       1.0  0.60046  0.07208  0.38899  1.0000
  C   C65       1.0  0.92959  0.59128  0.17554  1.0000
  C   C66       1.0  0.10504  0.56878  0.37586  1.0000
  C   C67       1.0  0.57685  0.91136  0.32929  1.0000
  C   C68       1.0  0.07026  0.40930  0.31156  1.0000
  C   C69       1.0  0.90133  0.43036  0.11613  1.0000
  C   C70       1.0  0.44908  0.05694  0.13510  1.0000
  C   C71       1.0  0.56621  0.04949  0.38396  1.0000
  C   C72       1.0  0.96384  0.56901  0.18145  1.0000
  C   C73       1.0  0.06883  0.54785  0.37108  1.0000
  C   C74       1.0  0.54148  0.93271  0.32448  1.0000
  C   C75       1.0  0.03584  0.43152  0.30446  1.0000
  C   C76       1.0  0.93638  0.45245  0.12544  1.0000
  C   C77       1.0  0.09988  0.22216  0.27634  1.0000
  C   C78       1.0  0.40237  0.72219  0.23793  1.0000
  C   C79       1.0  0.90240  0.77512  0.21643  1.0000
  C   C80       1.0  0.09956  0.77801  0.25654  1.0000
  C   C81       1.0  0.59987  0.27836  0.26924  1.0000
  C   C82       1.0  0.20665  0.34640  0.23378  1.0000
  C   C83       1.0  0.23181  0.32043  0.20955  1.0000
  C   C84       1.0  0.23466  0.29290  0.28419  1.0000
  C   C85       1.0  0.21328  0.29337  0.38960  1.0000
  C   C86       1.0  0.18839  0.31955  0.41528  1.0000
  C   C87       1.0  0.25934  0.26432  0.25255  1.0000
  C   C88       1.0  0.74107  0.26624  0.24630  1.0000
  C   C89       1.0  0.76192  0.76670  0.25196  1.0000
  C   C90       1.0  0.24190  0.76423  0.25138  1.0000
  C   C91       1.0  0.74166  0.73759  0.24271  1.0000
  C   C92       1.0  0.26144  0.73483  0.26249  1.0000
  C   C93       1.0  0.23974  0.23489  0.24325  1.0000
  C   C94       1.0  0.76011  0.23661  0.25939  1.0000
  N   N9        1.0  0.05313  0.78167  0.25845  1.0000
  N   N10       1.0  0.94716  0.77619  0.19795  1.0000
  N   N11       1.0  0.55407  0.28051  0.27957  1.0000
  N   N12       1.0  0.44552  0.27764  0.21172  1.0000
  N   N13       1.0  0.94670  0.22012  0.22752  1.0000
  N   N14       1.0  0.05443  0.21844  0.28839  1.0000
  N   N15       1.0  0.44815  0.71894  0.22817  1.0000
  N   N16       1.0  0.55478  0.72451  0.27618  1.0000
  H   H1        1.0  0.37254  0.13362  0.08576  1.0000
  H   H2        1.0  0.62707  0.13428  0.41119  1.0000
  H   H3        1.0  0.85975  0.62912  0.06106  1.0000
  H   H4        1.0  0.13040  0.62930  0.39663  1.0000
  H   H5        1.0  0.64647  0.87516  0.44749  1.0000
  H   H6        1.0  0.35921  0.87097  0.05839  1.0000
  H   H7        1.0  0.13880  0.37120  0.44000  1.0000
  H   H8        1.0  0.87144  0.36981  0.08565  1.0000
  H   H9        1.0  0.12784  0.19645  0.44925  1.0000
  H   H10       1.0  0.37529  0.69868  0.05619  1.0000
  H   H11       1.0  0.87560  0.80282  0.04849  1.0000
  H   H12       1.0  0.12366  0.80610  0.42855  1.0000
  H   H13       1.0  0.62614  0.30621  0.44096  1.0000
  H   H14       1.0  0.20716  0.20427  0.43596  1.0000
  H   H15       1.0  0.29553  0.70654  0.06556  1.0000
  H   H16       1.0  0.79631  0.79791  0.06450  1.0000
  H   H17       1.0  0.20427  0.79856  0.43025  1.0000
  H   H18       1.0  0.70577  0.29975  0.43164  1.0000
  H   H19       1.0  0.16370  0.25748  0.08944  1.0000
  H   H20       1.0  0.33715  0.75455  0.43052  1.0000
  H   H21       1.0  0.83716  0.74223  0.40547  1.0000
  H   H22       1.0  0.16870  0.74016  0.08938  1.0000
  H   H23       1.0  0.66627  0.24302  0.08694  1.0000
  H   H24       1.0  0.08376  0.25045  0.10473  1.0000
  H   H25       1.0  0.41739  0.74744  0.42018  1.0000
  H   H26       1.0  0.91701  0.74566  0.38503  1.0000
  H   H27       1.0  0.08744  0.74782  0.08724  1.0000
  H   H28       1.0  0.58596  0.24893  0.09761  1.0000
  H   H29       1.0  0.44200  0.02452  0.41985  1.0000
  H   H30       1.0  0.53916  0.03560  0.06105  1.0000
  H   H31       1.0  0.91829  0.50972  0.32599  1.0000
  H   H32       1.0  0.04083  0.53389  0.04817  1.0000
  H   H33       1.0  0.58676  0.99558  0.19959  1.0000
  H   H34       1.0  0.08935  0.49470  0.20883  1.0000
  H   H35       1.0  0.95600  0.46879  0.44625  1.0000
  H   H36       1.0  0.37796  0.06191  0.39595  1.0000
  H   H37       1.0  0.60047  0.07499  0.06996  1.0000
  H   H38       1.0  0.85904  0.54936  0.32057  1.0000
  H   H39       1.0  0.10583  0.57043  0.05674  1.0000
  H   H40       1.0  0.64913  0.95792  0.20796  1.0000
  H   H41       1.0  0.14917  0.45550  0.21849  1.0000
  H   H42       1.0  0.89190  0.43118  0.42865  1.0000
  H   H43       1.0  0.40648  0.09372  0.03914  1.0000
  H   H44       1.0  0.61813  0.08176  0.48159  1.0000
  H   H45       1.0  0.93361  0.61461  0.13723  1.0000
  H   H46       1.0  0.12341  0.57808  0.46831  1.0000
  H   H47       1.0  0.57324  0.88731  0.36111  1.0000
  H   H48       1.0  0.06418  0.38494  0.33518  1.0000
  H   H49       1.0  0.88619  0.41977  0.02305  1.0000
  H   H50       1.0  0.46886  0.05600  0.06108  1.0000
  H   H51       1.0  0.55762  0.04193  0.47313  1.0000
  H   H52       1.0  0.99363  0.57552  0.14552  1.0000
  H   H53       1.0  0.05890  0.54142  0.45983  1.0000
  H   H54       1.0  0.51124  0.92491  0.35567  1.0000
  H   H55       1.0  0.00389  0.42386  0.32564  1.0000
  H   H56       1.0  0.94861  0.45841  0.03966  1.0000
  H   H57       1.0  0.20347  0.36710  0.17287  1.0000
  H   H58       1.0  0.24792  0.32116  0.12792  1.0000
  H   H59       1.0  0.21598  0.27279  0.45100  1.0000
  H   H60       1.0  0.17194  0.31928  0.49682  1.0000
  H   H61       1.0  0.45466  0.69798  0.18784  1.0000
  H   H62       1.0  0.54655  0.70256  0.30190  1.0000
  H   H63       1.0  0.95322  0.19970  0.18363  1.0000
  H   H64       1.0  0.04815  0.19671  0.32080  1.0000
  H   H65       1.0  0.54604  0.30144  0.31702  1.0000
  H   H66       1.0  0.45302  0.29827  0.17278  1.0000
  H   H67       1.0  0.04558  0.80348  0.28941  1.0000
  H   H68       1.0  0.95429  0.79619  0.15403  1.0000
  H   H69       1.0  0.47078  0.72310  0.31255  1.0000
  H   H70       1.0  0.53108  0.73275  0.20087  1.0000
  H   H71       1.0  0.96984  0.22426  0.31087  1.0000
  H   H72       1.0  0.03117  0.22384  0.20712  1.0000
  H   H73       1.0  0.53146  0.27481  0.19677  1.0000
  H   H74       1.0  0.46921  0.27203  0.29165  1.0000
  H   H75       1.0  0.03212  0.77591  0.17290  1.0000
  H   H76       1.0  0.97202  0.77083  0.27561  1.0000
  C   C95       1.0  0.00063  0.48473  0.25447  1.0000
  C   C96       1.0  0.50174  0.98383  0.26238  1.0000
  C   C97       1.0  0.00146  0.51717  0.24719  1.0000
  C   C98       1.0  0.50148  0.01616  0.25781  1.0000
  N   N17       1.0  0.35201  0.10469  0.72367  1.0000
  N   N18       1.0  0.64511  0.10358  0.76976  1.0000
  N   N19       1.0  0.84838  0.60074  0.74389  1.0000
  N   N20       1.0  0.14283  0.60422  0.76653  1.0000
  N   N21       1.0  0.64594  0.89701  0.77222  1.0000
  N   N22       1.0  0.35310  0.89604  0.72710  1.0000
  N   N23       1.0  0.14567  0.39877  0.76176  1.0000
  N   N24       1.0  0.85051  0.39568  0.72768  1.0000
  C   C99       1.0  0.34600  0.12893  0.64878  1.0000
  C   C100      1.0  0.65420  0.12709  0.85020  1.0000
  C   C101      1.0  0.84812  0.62572  0.67489  1.0000
  C   C102      1.0  0.15188  0.62749  0.84811  1.0000
  C   C103      1.0  0.64997  0.87270  0.84610  1.0000
  C   C104      1.0  0.35140  0.86985  0.66203  1.0000
  C   C105      1.0  0.14964  0.37495  0.83846  1.0000
  C   C106      1.0  0.84107  0.37261  0.64527  1.0000
  C   C107      1.0  0.31606  0.15483  0.66834  1.0000
  C   C108      1.0  0.68337  0.15309  0.82976  1.0000
  C   C109      1.0  0.18169  0.65337  0.82954  1.0000
  C   C110      1.0  0.31918  0.84480  0.67204  1.0000
  C   C111      1.0  0.63397  0.71193  0.86059  1.0000
  C   C112      1.0  0.13657  0.78881  0.87503  1.0000
  C   C113      1.0  0.36232  0.28758  0.62578  1.0000
  C   C114      1.0  0.67951  0.71572  0.85572  1.0000
  C   C115      1.0  0.18138  0.78358  0.86508  1.0000
  C   C116      1.0  0.31764  0.28535  0.64101  1.0000
  C   C117      1.0  0.69231  0.73046  0.75119  1.0000
  C   C118      1.0  0.19165  0.76960  0.75455  1.0000
  C   C119      1.0  0.30712  0.27108  0.74965  1.0000
  C   C120      1.0  0.65744  0.74099  0.65103  1.0000
  C   C121      1.0  0.15510  0.76057  0.65502  1.0000
  C   C122      1.0  0.34348  0.25947  0.84287  1.0000
  C   C123      1.0  0.61168  0.73696  0.65423  1.0000
  C   C124      1.0  0.11014  0.76560  0.66421  1.0000
  C   C125      1.0  0.38834  0.26147  0.82837  1.0000
  C   C126      1.0  0.45602  0.03579  0.74001  1.0000
  C   C127      1.0  0.53997  0.03707  0.77497  1.0000
  C   C128      1.0  0.45881  0.96338  0.74290  1.0000
  C   C129      1.0  0.03981  0.46492  0.75551  1.0000
  C   C130      1.0  0.42386  0.03482  0.81760  1.0000
  C   C131      1.0  0.57884  0.02930  0.72720  1.0000
  C   C132      1.0  0.43305  0.96135  0.83763  1.0000
  C   C133      1.0  0.05483  0.45615  0.64380  1.0000
  C   C134      1.0  0.38866  0.05682  0.80435  1.0000
  C   C135      1.0  0.61363  0.05110  0.72980  1.0000
  C   C136      1.0  0.39716  0.94001  0.82617  1.0000
  C   C137      1.0  0.09122  0.43551  0.64969  1.0000
  C   C138      1.0  0.38462  0.08143  0.71525  1.0000
  C   C139      1.0  0.61155  0.08169  0.78174  1.0000
  C   C140      1.0  0.38693  0.91856  0.72230  1.0000
  C   C141      1.0  0.11266  0.42194  0.76725  1.0000
  C   C142      1.0  0.41572  0.08187  0.63323  1.0000
  C   C143      1.0  0.57340  0.08946  0.83272  1.0000
  C   C144      1.0  0.41230  0.92056  0.62580  1.0000
  C   C145      1.0  0.09937  0.43198  0.88034  1.0000
  C   C146      1.0  0.45022  0.05959  0.64567  1.0000
  C   C147      1.0  0.53878  0.06762  0.82971  1.0000
  C   C148      1.0  0.44757  0.94232  0.63715  1.0000
  C   C149      1.0  0.06345  0.45322  0.87393  1.0000
  C   C150      1.0  0.59931  0.72226  0.75919  1.0000
  C   C151      1.0  0.10025  0.78013  0.77426  1.0000
  C   C152      1.0  0.39835  0.27524  0.71834  1.0000
  C   C153      1.0  0.29002  0.15371  0.76330  1.0000
  C   C154      1.0  0.70680  0.15242  0.72884  1.0000
  C   C155      1.0  0.20380  0.65308  0.72584  1.0000
  C   C156      1.0  0.28790  0.84755  0.75263  1.0000
  C   C157      1.0  0.26452  0.17962  0.78682  1.0000
  C   C158      1.0  0.73204  0.17835  0.70629  1.0000
  C   C159      1.0  0.22905  0.67896  0.70323  1.0000
  C   C160      1.0  0.26085  0.82204  0.76978  1.0000
  C   C161      1.0  0.26504  0.20833  0.72062  1.0000
  C   C162      1.0  0.73393  0.20630  0.78089  1.0000
  C   C163      1.0  0.23247  0.70655  0.78041  1.0000
  C   C164      1.0  0.26465  0.79241  0.71027  1.0000
  C   C165      1.0  0.28920  0.20867  0.62092  1.0000
  C   C166      1.0  0.71176  0.20638  0.88451  1.0000
  C   C167      1.0  0.21174  0.70628  0.88684  1.0000
  C   C168      1.0  0.29364  0.79060  0.62264  1.0000
  C   C169      1.0  0.31415  0.18255  0.59545  1.0000
  C   C170      1.0  0.68699  0.18025  0.90881  1.0000
  C   C171      1.0  0.18683  0.68014  0.91122  1.0000
  C   C172      1.0  0.32049  0.81613  0.60443  1.0000
  C   C173      1.0  0.25927  0.26653  0.76517  1.0000
  C   C174      1.0  0.73851  0.26401  0.74454  1.0000
  C   C175      1.0  0.76014  0.76543  0.76210  1.0000
  C   C176      1.0  0.23945  0.76426  0.74041  1.0000
  C   C177      1.0  0.74102  0.73565  0.74463  1.0000
  C   C178      1.0  0.25804  0.73463  0.75063  1.0000
  C   C179      1.0  0.24030  0.23678  0.75389  1.0000
  C   C180      1.0  0.75853  0.23485  0.75189  1.0000
  N   N25       1.0  0.05490  0.78430  0.78625  1.0000
  N   N26       1.0  0.94526  0.77742  0.70923  1.0000
  N   N27       1.0  0.55274  0.28416  0.78133  1.0000
  N   N28       1.0  0.44327  0.27763  0.70109  1.0000
  N   N29       1.0  0.94424  0.22210  0.70467  1.0000
  N   N30       1.0  0.05330  0.21441  0.76978  1.0000
  N   N31       1.0  0.44416  0.71564  0.72053  1.0000
  N   N32       1.0  0.55339  0.71875  0.76677  1.0000
  H   H77       1.0  0.36398  0.13213  0.57014  1.0000
  H   H78       1.0  0.63943  0.12907  0.93597  1.0000
  H   H79       1.0  0.87290  0.62893  0.61372  1.0000
  H   H80       1.0  0.13680  0.62910  0.93339  1.0000
  H   H81       1.0  0.62772  0.86908  0.91425  1.0000
  H   H82       1.0  0.37545  0.86431  0.60045  1.0000
  H   H83       1.0  0.12762  0.37213  0.90780  1.0000
  H   H84       1.0  0.85588  0.37084  0.55955  1.0000
  H   H85       1.0  0.62524  0.70147  0.94499  1.0000
  H   H86       1.0  0.12980  0.79905  0.96315  1.0000
  H   H87       1.0  0.36926  0.29808  0.53923  1.0000
  H   H88       1.0  0.70543  0.70785  0.93695  1.0000
  H   H89       1.0  0.20873  0.78987  0.94626  1.0000
  H   H90       1.0  0.29058  0.29365  0.56358  1.0000
  H   H91       1.0  0.66625  0.75218  0.56820  1.0000
  H   H92       1.0  0.16193  0.74945  0.56861  1.0000
  H   H93       1.0  0.33652  0.24834  0.92809  1.0000
  H   H94       1.0  0.58553  0.74493  0.57368  1.0000
  H   H95       1.0  0.08251  0.75808  0.58575  1.0000
  H   H96       1.0  0.41557  0.25185  0.90216  1.0000
  H   H97       1.0  0.42724  0.01783  0.89416  1.0000
  H   H98       1.0  0.58121  0.00631  0.68288  1.0000
  H   H99       1.0  0.44226  0.97583  0.92407  1.0000
  H   H100      1.0  0.03800  0.46576  0.55137  1.0000
  H   H101      1.0  0.36472  0.05608  0.86748  1.0000
  H   H102      1.0  0.64260  0.04498  0.68847  1.0000
  H   H103      1.0  0.37737  0.93883  0.90007  1.0000
  H   H104      1.0  0.10258  0.42875  0.56293  1.0000
  H   H105      1.0  0.41376  0.10015  0.56131  1.0000
  H   H106      1.0  0.57008  0.11322  0.86995  1.0000
  H   H107      1.0  0.40430  0.90522  0.54114  1.0000
  H   H108      1.0  0.11700  0.42316  0.97341  1.0000
  H   H109      1.0  0.47442  0.06115  0.58350  1.0000
  H   H110      1.0  0.50936  0.07467  0.86717  1.0000
  H   H111      1.0  0.46694  0.94293  0.56231  1.0000
  H   H112      1.0  0.05348  0.46062  0.96217  1.0000
  H   H113      1.0  0.29104  0.13234  0.81975  1.0000
  H   H114      1.0  0.70420  0.13132  0.66820  1.0000
  H   H115      1.0  0.20013  0.63240  0.66259  1.0000
  H   H116      1.0  0.28633  0.86983  0.80370  1.0000
  H   H117      1.0  0.24522  0.17784  0.86150  1.0000
  H   H118      1.0  0.74915  0.17730  0.62661  1.0000
  H   H119      1.0  0.24492  0.67813  0.62116  1.0000
  H   H120      1.0  0.23741  0.82476  0.83364  1.0000
  H   H121      1.0  0.28871  0.22982  0.56379  1.0000
  H   H122      1.0  0.71388  0.22732  0.94559  1.0000
  H   H123      1.0  0.21503  0.72686  0.95025  1.0000
  H   H124      1.0  0.29529  0.76875  0.56942  1.0000
  H   H125      1.0  0.33274  0.18364  0.51847  1.0000
  H   H126      1.0  0.66991  0.18087  0.98909  1.0000
  H   H127      1.0  0.17083  0.68044  0.99367  1.0000
  H   H128      1.0  0.34295  0.81401  0.53712  1.0000
  H   H129      1.0  0.45144  0.69446  0.68364  1.0000
  H   H130      1.0  0.54714  0.69792  0.80664  1.0000
  H   H131      1.0  0.95115  0.20149  0.66272  1.0000
  H   H132      1.0  0.04768  0.19314  0.80726  1.0000
  H   H133      1.0  0.54866  0.30104  0.84679  1.0000
  H   H134      1.0  0.44499  0.27704  0.60673  1.0000
  H   H135      1.0  0.05116  0.80139  0.85124  1.0000
  H   H136      1.0  0.94760  0.77876  0.61558  1.0000
  H   H137      1.0  0.46736  0.72162  0.80170  1.0000
  H   H138      1.0  0.53081  0.72225  0.68220  1.0000
  H   H139      1.0  0.96867  0.22753  0.78398  1.0000
  H   H140      1.0  0.03192  0.21749  0.68289  1.0000
  H   H141      1.0  0.53106  0.28852  0.69608  1.0000
  H   H142      1.0  0.46535  0.26182  0.75210  1.0000
  H   H143      1.0  0.03292  0.78855  0.70144  1.0000
  H   H144      1.0  0.96700  0.76091  0.75653  1.0000
  C   C181      1.0  0.99711  0.48374  0.74805  1.0000
  C   C182      1.0  0.49972  0.98420  0.75828  1.0000
  C   C183      1.0  0.99670  0.51620  0.75546  1.0000
  C   C184      1.0  0.49882  0.01656  0.76033  1.0000
  C   C185      1.0  0.93142  0.54765  0.87724  1.0000
  C   C186      1.0  0.94935  0.53496  0.77704  1.0000
  C  Sn1       1.0  0.93232  0.54435  0.65053  1.0000
  C  Sn2       1.0  0.89668  0.56686  0.62417  1.0000
  C   C187      1.0  0.87899  0.57943  0.72510  1.0000
  C   C188      1.0  0.89628  0.56987  0.85133  1.0000
  H   H145      1.0  0.94480  0.54026  0.97492  1.0000
  O  Te1       1.0  0.95062  0.53143  0.55155  1.0000
  O  Te2       1.0  0.87904  0.57667  0.49862  1.0000
  H   H146      1.0  0.88240  0.57971  0.92891  1.0000
  Mg  Mg1       1.0  0.91519  0.55226  0.39633  1.0000
  C   C189      1.0  0.75784  0.66833  0.76389  1.0000
  C   C190      1.0  0.76270  0.69948  0.72643  1.0000
  C  Sn3       1.0  0.79540  0.70702  0.65630  1.0000
  C  Sn4       1.0  0.82370  0.68287  0.62318  1.0000
  C   C191      1.0  0.81855  0.65178  0.66103  1.0000
  C   C192      1.0  0.78573  0.64450  0.73121  1.0000
  H   H147      1.0  0.73243  0.66270  0.81813  1.0000
  O  Te3       1.0  0.79982  0.73826  0.61968  1.0000
  O  Te4       1.0  0.85665  0.68975  0.55311  1.0000
  H   H148      1.0  0.78195  0.62038  0.76013  1.0000
  Mg  Mg2       1.0  0.84967  0.73587  0.52524  1.0000
  C   C193      1.0  0.30930  0.81038  0.08210  1.0000
  C   C194      1.0  0.31362  0.84041  0.13981  1.0000
  C  Sn5       1.0  0.29515  0.84659  0.24718  1.0000
  C  Sn6       1.0  0.27197  0.82220  0.29752  1.0000
  C   C195      1.0  0.26786  0.79223  0.23915  1.0000
  C   C196      1.0  0.28645  0.78631  0.13172  1.0000
  H   H149      1.0  0.39987  0.80890  0.99903  1.0000
  O  Te5       1.0  0.29976  0.87673  0.30363  1.0000
  O  Te6       1.0  0.25320  0.82773  0.40476  1.0000
  H   H150      1.0  0.28313  0.76305  0.08711  1.0000
  Mg  Mg3       1.0  0.26836  0.87268  0.44804  1.0000
  C   C197      1.0  0.44577  0.93398  0.12962  1.0000
  C   C198      1.0  0.45589  0.95978  0.21424  1.0000
  C  Sn7       1.0  0.43151  0.96464  0.31054  1.0000
  C  Sn8       1.0  0.39638  0.94322  0.32210  1.0000
  C   C199      1.0  0.38654  0.91747  0.23702  1.0000
  C   C200      1.0  0.41113  0.91284  0.14099  1.0000
  H   H151      1.0  0.46481  0.93038  0.05536  1.0000
  O  Te7       1.0  0.44205  0.99054  0.39425  1.0000
  O  Te8       1.0  0.37150  0.94751  0.41750  1.0000
  H   H152      1.0  0.40331  0.89284  0.07554  1.0000
  Mg  Mg4       1.0  0.39854  0.98634  0.50856  1.0000
  C   C201      1.0  0.79281  0.29639  0.59172  1.0000
  C   C202      1.0  0.76958  0.29163  0.69024  1.0000
  C  Sn9       1.0  0.76514  0.31635  0.77488  1.0000
  C  Sn10      1.0  0.78435  0.34638  0.76036  1.0000
  C   C203      1.0  0.80750  0.35090  0.66143  1.0000
  C   C204      1.0  0.81175  0.32600  0.57730  1.0000
  H   H153      1.0  0.79608  0.27712  0.52658  1.0000
  O  Te9       1.0  0.74183  0.31119  0.87281  1.0000
  O  Te10      1.0  0.78040  0.37150  0.84358  1.0000
  H   H154      1.0  0.82972  0.32970  0.50098  1.0000
  Mg  Mg5       1.0  0.74550  0.35279  0.96209  1.0000
  C   C205      1.0  0.19653  0.29843  0.89818  1.0000
  C   C206      1.0  0.22575  0.29428  0.81365  1.0000
  C  Sn11      1.0  0.23516  0.31950  0.73987  1.0000
  C  Sn12      1.0  0.21491  0.34942  0.75118  1.0000
  C   C207      1.0  0.18575  0.35334  0.83610  1.0000
  C   C208      1.0  0.17656  0.32793  0.90943  1.0000
  H   H155      1.0  0.18943  0.27878  0.95498  1.0000
  O  Te11      1.0  0.26441  0.31494  0.65585  1.0000
  O  Te12      1.0  0.22375  0.37503  0.67863  1.0000
  H   H156      1.0  0.15396  0.33116  0.97494  1.0000
  Mg  Mg6       1.0  0.26591  0.35706  0.57743  1.0000
  C   C209      1.0  0.56226  0.94941  0.63778  1.0000
  C   C210      1.0  0.54248  0.96082  0.73659  1.0000
  C  Sn13      1.0  0.56060  0.95265  0.86401  1.0000
  C  Sn14      1.0  0.59926  0.93269  0.89274  1.0000
  C   C211      1.0  0.61883  0.92143  0.79321  1.0000
  C   C212      1.0  0.60041  0.92974  0.66604  1.0000
  H   H157      1.0  0.54803  0.95586  0.53939  1.0000
  O  Te13      1.0  0.54040  0.96424  0.96156  1.0000
  O  Te14      1.0  0.54190  0.92106  0.01925  1.0000
  H   H158      1.0  0.61575  0.92092  0.58956  1.0000
  Mg  Mg7       1.0  0.50227  0.94285  0.11889  1.0000
  C   C213      1.0  0.68092  0.80975  0.90223  1.0000
  C   C214      1.0  0.68287  0.84090  0.86131  1.0000
  C  Sn15      1.0  0.71152  0.84888  0.77937  1.0000
  C  Sn16      1.0  0.73868  0.82519  0.73777  1.0000
  C   C215      1.0  0.73646  0.79409  0.77918  1.0000
  C   C216      1.0  0.70768  0.78636  0.86120  1.0000
  H   H159      1.0  0.65864  0.80376  0.96564  1.0000
  O  Te15      1.0  0.71307  0.88012  0.73944  1.0000
  O  Te16      1.0  0.76760  0.83252  0.65583  1.0000
  H   H160      1.0  0.70616  0.76224  0.89280  1.0000
  Mg  Mg8       1.0  0.75781  0.87844  0.62779  1.0000
  C   C217      1.0  0.78031  0.67602  0.31524  1.0000
  C   C218      1.0  0.77064  0.70361  0.24365  1.0000
  C  Sn17      1.0  0.78333  0.70630  0.12556  1.0000
  C  Sn18      1.0  0.80610  0.68086  0.07850  1.0000
  C   C219      1.0  0.81559  0.65335  0.15080  1.0000
  C   C220      1.0  0.80275  0.65091  0.26887  1.0000
  H   H161      1.0  0.77036  0.67412  0.40656  1.0000
  O  Te17      1.0  0.77342  0.73403  0.05529  1.0000
  O  Te18      1.0  0.89532  0.68602  0.96075  1.0000
  H   H162      1.0  0.81022  0.62954  0.32424  1.0000
  Mg  Mg9       1.0  0.87427  0.72866  0.90022  1.0000
  C   C221      1.0  0.71915  0.15676  0.22899  1.0000
  C   C222      1.0  0.68991  0.15393  0.31387  1.0000
  C  Sn19      1.0  0.68241  0.17977  0.38964  1.0000
  C  Sn20      1.0  0.70463  0.20895  0.38001  1.0000
  C   C223      1.0  0.73380  0.21154  0.29474  1.0000
  C   C224      1.0  0.74107  0.18554  0.21940  1.0000
  H   H163      1.0  0.72477  0.13665  0.17064  1.0000
  O  Te19      1.0  0.65310  0.17652  0.47398  1.0000
  O  Te20      1.0  0.69773  0.23515  0.45458  1.0000
  H   H164      1.0  0.76369  0.18775  0.15363  1.0000
  Mg  Mg10      1.0  0.65466  0.21900  0.55542  1.0000
  C   C225      1.0  0.82712  0.21092  0.61782  1.0000
  C   C226      1.0  0.80882  0.22471  0.71529  1.0000
  C  Sn21      1.0  0.83719  0.23973  0.82011  1.0000
  C  Sn22      1.0  0.88476  0.24095  0.82719  1.0000
  C   C227      1.0  0.90273  0.22710  0.72914  1.0000
  C   C228      1.0  0.87403  0.21212  0.62470  1.0000
  H   H165      1.0  0.80492  0.19934  0.53698  1.0000
  O  Te21      1.0  0.81835  0.25338  0.91668  1.0000
  O  Te22      1.0  0.91390  0.25582  0.93084  1.0000
  H   H166      1.0  0.88821  0.20147  0.54921  1.0000
  Mg  Mg11      1.0  0.79585  0.26784  0.03859  1.0000
  C   C229      1.0  0.76906  0.33179  0.28805  1.0000
  C   C230      1.0  0.76180  0.30270  0.22307  1.0000
  C  Sn23      1.0  0.78528  0.29517  0.12699  1.0000
  C  Sn24      1.0  0.81659  0.31723  0.09561  1.0000
  C   C231      1.0  0.82363  0.34625  0.16124  1.0000
  C   C232      1.0  0.79995  0.35354  0.25720  1.0000
  H   H167      1.0  0.75076  0.33742  0.36234  1.0000
  O  Te23      1.0  0.77761  0.26601  0.06298  1.0000
  O  Te24      1.0  0.84052  0.31031  0.00002  1.0000
  H   H168      1.0  0.80560  0.37606  0.30755  1.0000
  Mg  Mg12      1.0  0.89455  0.27058  0.93996  1.0000
  C   C233      1.0  0.35465  0.25125  0.33933  1.0000
  C   C234      1.0  0.31612  0.26628  0.26858  1.0000
  C  Sn25      1.0  0.31965  0.28584  0.16638  1.0000
  C  Sn26      1.0  0.36260  0.29038  0.13464  1.0000
  C   C235      1.0  0.40093  0.27522  0.20596  1.0000
  C   C236      1.0  0.39702  0.25571  0.30805  1.0000
  H   H169      1.0  0.35162  0.23614  0.41828  1.0000
  O  Te25      1.0  0.28082  0.30069  0.09673  1.0000
  O  Te26      1.0  0.36709  0.30979  0.03295  1.0000
  H   H170      1.0  0.42685  0.24406  0.36276  1.0000
  Mg  Mg13      1.0  0.38043  0.32799  0.96660  1.0000
  C   C237      1.0  0.14652  0.20750  0.88085  1.0000
  C   C238      1.0  0.10728  0.21791  0.79628  1.0000
  C  Sn27      1.0  0.11058  0.23471  0.68653  1.0000
  C  Sn28      1.0  0.15404  0.24117  0.66121  1.0000
  C   C239      1.0  0.19309  0.23063  0.74637  1.0000
  C   C240      1.0  0.18939  0.21385  0.85593  1.0000
  H   H171      1.0  0.14366  0.19450  0.96559  1.0000
  O  Te27      1.0  0.07103  0.24494  0.60307  1.0000
  O  Te28      1.0  0.15832  0.25790  0.55221  1.0000
  H   H172      1.0  0.21978  0.20578  0.92134  1.0000
  Mg  Mg14      1.0  0.09445  0.26689  0.46729  1.0000
  C   C241      1.0  0.64669  0.75249  0.15606  1.0000
  C   C242      1.0  0.68527  0.73931  0.23460  1.0000
  C  Sn29      1.0  0.68077  0.71768  0.32923  1.0000
  C  Sn30      1.0  0.63679  0.70913  0.34527  1.0000
  C   C243      1.0  0.59840  0.72243  0.26615  1.0000
  C   C244      1.0  0.60329  0.74406  0.17179  1.0000
  H   H173      1.0  0.65047  0.76921  0.08300  1.0000
  O  Te29      1.0  0.71967  0.70474  0.40690  1.0000
  O  Te30      1.0  0.63131  0.68756  0.43907  1.0000
  H   H174      1.0  0.57341  0.75424  0.11094  1.0000
  Mg  Mg15      1.0  0.69466  0.67637  0.52133  1.0000
  C   C245      1.0  0.95278  0.42458  0.66530  1.0000
  C   C246      1.0  0.95585  0.45577  0.71141  1.0000
  C  Sn31      1.0  0.92226  0.46814  0.77016  1.0000
  C  Sn32      1.0  0.88496  0.44886  0.78287  1.0000
  C   C247      1.0  0.88221  0.41768  0.73651  1.0000
  C   C248      1.0  0.91600  0.40555  0.67785  1.0000
  H   H175      1.0  0.97893  0.41519  0.61998  1.0000
  O  Te31      1.0  0.92585  0.49935  0.81565  1.0000
  O  Te32      1.0  0.85092  0.46061  0.84123  1.0000
  H   H176      1.0  0.91363  0.38139  0.64223  1.0000
  Mg  Mg16      1.0  0.87092  0.50462  0.88796  1.0000
  C   C249      1.0  0.31172  0.18948  0.08359  1.0000
  C   C250      1.0  0.32026  0.16111  0.15036  1.0000
  C  Sn33      1.0  0.29735  0.15403  0.24751  1.0000
  C  Sn34      1.0  0.26529  0.17580  0.27815  1.0000
  C   C251      1.0  0.25696  0.20411  0.21072  1.0000
  C   C252      1.0  0.28010  0.21096  0.11371  1.0000
  H   H177      1.0  0.32959  0.19477  0.00848  1.0000
  O  Te33      1.0  0.30630  0.12558  0.31330  1.0000
  O  Te34      1.0  0.24190  0.16931  0.37478  1.0000
  H   H178      1.0  0.27345  0.23292  0.06197  1.0000
  Mg  Mg17      1.0  0.26583  0.12742  0.43720  1.0000
  C   C253      1.0  0.19698  0.70333  0.38718  1.0000
  C   C254      1.0  0.23166  0.70610  0.31938  1.0000
  C  Sn35      1.0  0.24258  0.68052  0.24749  1.0000
  C  Sn36      1.0  0.21825  0.65166  0.24354  1.0000
  C   C255      1.0  0.18359  0.64913  0.31163  1.0000
  C   C256      1.0  0.17296  0.67487  0.38330  1.0000
  H   H179      1.0  0.18874  0.72325  0.44258  1.0000
  O  Te35      1.0  0.27734  0.68370  0.18036  1.0000
  O  Te36      1.0  0.22844  0.62572  0.17241  1.0000
  H   H180      1.0  0.14608  0.67272  0.43571  1.0000
  Mg  Mg18      1.0  0.27867  0.64165  0.09713  1.0000
  C   C257      1.0  0.85222  0.78908  0.61785  1.0000
  C   C258      1.0  0.89216  0.78054  0.70407  1.0000
  C  Sn37      1.0  0.89005  0.76482  0.81726  1.0000
  C  Sn38      1.0  0.84710  0.75755  0.84434  1.0000
  C   C259      1.0  0.80734  0.76617  0.75742  1.0000
  C   C260      1.0  0.80985  0.78190  0.64446  1.0000
  H   H181      1.0  0.85415  0.80123  0.53042  1.0000
  O  Te37      1.0  0.93028  0.75647  0.90238  1.0000
  O  Te38      1.0  0.84401  0.74184  0.95673  1.0000
  H   H182      1.0  0.77892  0.78849  0.57768  1.0000
  Mg  Mg19      1.0  0.83227  0.73227  0.04282  1.0000
  C   C261      1.0  0.85377  0.20940  0.12544  1.0000
  C   C262      1.0  0.89295  0.22129  0.20742  1.0000
  C  Sn39      1.0  0.88982  0.23800  0.31915  1.0000
  C  Sn40      1.0  0.84662  0.24285  0.34914  1.0000
  C   C263      1.0  0.80763  0.23083  0.26655  1.0000
  C   C264      1.0  0.81115  0.21416  0.15497  1.0000
  H   H183      1.0  0.85649  0.19648  0.03915  1.0000
  O  Te39      1.0  0.92930  0.24973  0.39997  1.0000
  O  Te40      1.0  0.84252  0.25945  0.46021  1.0000
  H   H184      1.0  0.78081  0.20493  0.09156  1.0000
  Mg  Mg20      1.0  0.90620  0.27085  0.54011  1.0000
  C   C265      1.0  0.71065  0.80014  0.41182  1.0000
  C   C266      1.0  0.73068  0.79450  0.30692  1.0000
  C  Sn41      1.0  0.73215  0.81838  0.21839  1.0000
  C  Sn42      1.0  0.71320  0.84845  0.23547  1.0000
  C   C267      1.0  0.69327  0.85386  0.34079  1.0000
  C   C268      1.0  0.69197  0.82980  0.42877  1.0000
  H   H185      1.0  0.70966  0.78153  0.47994  1.0000
  O  Te41      1.0  0.75227  0.81233  0.11410  1.0000
  O  Te42      1.0  0.71423  0.87274  0.14847  1.0000
  H   H186      1.0  0.67649  0.83418  0.51002  1.0000
  Mg  Mg21      1.0  0.74537  0.85300  0.02158  1.0000
  C   C269      1.0  0.05519  0.59005  0.80825  1.0000
  C   C270      1.0  0.09940  0.58531  0.79081  1.0000
  C  Sn43      1.0  0.11288  0.55547  0.75536  1.0000
  C  Sn44      1.0  0.08142  0.52997  0.73707  1.0000
  C   C271      1.0  0.03726  0.53497  0.75466  1.0000
  C   C272      1.0  0.02414  0.56491  0.79017  1.0000
  H   H187      1.0  0.04503  0.61323  0.83566  1.0000
  O  Te43      1.0  0.15719  0.55114  0.73839  1.0000
  O  Te44      1.0  0.09399  0.49991  0.70159  1.0000
  H   H188      1.0  0.98989  0.56859  0.80358  1.0000
  Mg  Mg22      1.0  0.15820  0.50580  0.68994  1.0000
  C   C273      1.0  0.32653  0.70808  0.62260  1.0000
  C   C274      1.0  0.30811  0.72244  0.71870  1.0000
  C  Sn45      1.0  0.33658  0.73659  0.82556  1.0000
  C  Sn46      1.0  0.38436  0.73634  0.83612  1.0000
  C   C275      1.0  0.40245  0.72194  0.73941  1.0000
  C   C276      1.0  0.37365  0.70784  0.63291  1.0000
  H   H189      1.0  0.30424  0.69718  0.54016  1.0000
  O  Te45      1.0  0.31762  0.75082  0.92073  1.0000
  O  Te46      1.0  0.41360  0.75032  0.94188  1.0000
  H   H190      1.0  0.38791  0.69674  0.55847  1.0000
  Mg  Mg23      1.0  0.29534  0.76363  0.04653  1.0000
  C   C277      1.0  0.67102  0.28716  0.88396  1.0000
  C   C278      1.0  0.68851  0.27083  0.79053  1.0000
  C  Sn47      1.0  0.65942  0.25972  0.67835  1.0000
  C  Sn48      1.0  0.61194  0.26509  0.65960  1.0000
  C   C279      1.0  0.59478  0.28147  0.75360  1.0000
  C   C280      1.0  0.62420  0.29248  0.86552  1.0000
  H   H191      1.0  0.69378  0.29570  0.97052  1.0000
  O  Te47      1.0  0.67746  0.24344  0.58601  1.0000
  O  Te48      1.0  0.58209  0.25425  0.54835  1.0000
  H   H192      1.0  0.61065  0.30514  0.93779  1.0000
  Mg  Mg24      1.0  0.62300  0.23329  0.45045  1.0000
