data_image0
_chemical_formula_structural       N8C37H23C43H21C8H20C4N8C35H23C45H21C8H20C4SnCSn2CSnTe4Mg2SnCSn2CSnTe4Mg2SnCSn2CSnTe4Mg2SnCSn2CSnTe4Mg2SnCSn2CSnTe4Mg2SnCSn2CSnTe4Mg2SnCSn2CSnTe4Mg2SnCSn2CSnTe4Mg2SnCSn2CSnTe4Mg2SnCSn2CSnTe4Mg2SnCSn2CSnTe4Mg2SnCSn2CSnTe4Mg2SnCSn2CSnTe4Mg2SnCSn2CSnTe4Mg2SnCSn2CSnTe4Mg2SnCSn2CSnTe4Mg2SnCSn2CSnTe4Mg2SnCSn2CSnTe4Mg2SnCSn2CSnTe4Mg2SnCSn2CSnTe4Mg2SnCSn2CSnTe4Mg2SnCSn2CSnTe4Mg2SnCSn2CSnTe4Mg2SnCSn2CSnTe4Mg2
_chemical_formula_sum              "N16 C232 H128 Sn96 Te96 Mg48"
_cell_length_a       26.9322
_cell_length_b       43.7009
_cell_length_c       10.1475
_cell_angle_alpha    87.5091
_cell_angle_beta     114.512
_cell_angle_gamma    90.1589

_symmetry_space_group_name_H-M    'P1'
_space_group_IT_number       1

loop_
  _space_group_symop_operation_xyz
  'x, y, z'

loop_
  _atom_site_type_symbol
  _atom_site_label
  _atom_site_symmetry_multiplicity
  _atom_site_fract_x
  _atom_site_fract_y
  _atom_site_fract_z
  _atom_site_occupancy
  N   N1        1.0  0.32681  0.09825  0.19268  1.0000
  N   N2        1.0  0.66473  0.10580  0.32752  1.0000
  N   N3        1.0  0.83347  0.60473  0.17991  1.0000
  N   N4        1.0  0.17124  0.60035  0.31887  1.0000
  N   N5        1.0  0.67160  0.90220  0.30335  1.0000
  N   N6        1.0  0.33496  0.89596  0.17419  1.0000
  N   N7        1.0  0.16682  0.39629  0.31302  1.0000
  N   N8        1.0  0.82824  0.40329  0.18486  1.0000
  C   C1        1.0  0.32914  0.12459  0.13262  1.0000
  C   C2        1.0  0.66311  0.13148  0.38476  1.0000
  C   C3        1.0  0.82965  0.63112  0.11319  1.0000
  C   C4        1.0  0.17052  0.62447  0.38738  1.0000
  C   C5        1.0  0.66710  0.87617  0.36261  1.0000
  C   C6        1.0  0.33393  0.87070  0.11114  1.0000
  C   C7        1.0  0.17048  0.37027  0.38275  1.0000
  C   C8        1.0  0.83263  0.37796  0.12906  1.0000
  C   C9        1.0  0.69474  0.15776  0.37322  1.0000
  C   C10       1.0  0.80096  0.65716  0.13609  1.0000
  C   C11       1.0  0.30289  0.84443  0.12612  1.0000
  C   C12       1.0  0.19856  0.34372  0.36227  1.0000
  C   C13       1.0  0.89299  0.21857  0.22159  1.0000
  C   C14       1.0  0.60848  0.71272  0.29511  1.0000
  C   C15       1.0  0.39647  0.71847  0.22622  1.0000
  C   C16       1.0  0.89139  0.78264  0.21263  1.0000
  C   C17       1.0  0.60529  0.28535  0.27902  1.0000
  C   C18       1.0  0.83839  0.22048  0.20008  1.0000
  C   C19       1.0  0.66312  0.71690  0.32076  1.0000
  C   C20       1.0  0.34228  0.71822  0.20923  1.0000
  C   C21       1.0  0.83766  0.78333  0.19928  1.0000
  C   C22       1.0  0.65946  0.28489  0.29605  1.0000
  C   C23       1.0  0.82253  0.23791  0.28986  1.0000
  C   C24       1.0  0.67739  0.73499  0.22417  1.0000
  C   C25       1.0  0.32544  0.73527  0.29838  1.0000
  C   C26       1.0  0.82202  0.76512  0.29298  1.0000
  C   C27       1.0  0.67556  0.26757  0.20632  1.0000
  C   C28       1.0  0.86308  0.25370  0.40029  1.0000
  C   C29       1.0  0.63529  0.74928  0.10282  1.0000
  C   C30       1.0  0.36460  0.75282  0.40361  1.0000
  C   C31       1.0  0.86185  0.74603  0.39887  1.0000
  C   C32       1.0  0.63581  0.25042  0.10070  1.0000
  C   C33       1.0  0.91749  0.25234  0.41982  1.0000
  C   C34       1.0  0.58072  0.74568  0.07885  1.0000
  C   C35       1.0  0.41865  0.75337  0.41964  1.0000
  C   C36       1.0  0.91546  0.74508  0.41158  1.0000
  C   C37       1.0  0.58174  0.25058  0.08456  1.0000
  H   H1        1.0  0.35729  0.12854  0.08024  1.0000
  H   H2        1.0  0.63586  0.13500  0.43921  1.0000
  H   H3        1.0  0.85008  0.63547  0.04025  1.0000
  H   H4        1.0  0.14369  0.62651  0.44420  1.0000
  H   H5        1.0  0.63742  0.87303  0.41074  1.0000
  H   H6        1.0  0.35842  0.86757  0.04856  1.0000
  H   H7        1.0  0.15029  0.36655  0.45666  1.0000
  H   H8        1.0  0.86327  0.37498  0.08480  1.0000
  H   H9        1.0  0.90396  0.20507  0.14986  1.0000
  H   H10       1.0  0.59867  0.69855  0.37161  1.0000
  H   H11       1.0  0.40808  0.70539  0.15436  1.0000
  H   H12       1.0  0.90211  0.79654  0.13710  1.0000
  H   H13       1.0  0.59402  0.29873  0.35061  1.0000
  H   H14       1.0  0.80776  0.20928  0.10873  1.0000
  H   H15       1.0  0.69489  0.70663  0.41886  1.0000
  H   H16       1.0  0.31258  0.70558  0.12179  1.0000
  H   H17       1.0  0.80728  0.79724  0.11158  1.0000
  H   H18       1.0  0.68986  0.29718  0.38357  1.0000
  H   H19       1.0  0.94787  0.26513  0.50528  1.0000
  H   H20       1.0  0.54897  0.75728  0.98461  1.0000
  H   H21       1.0  0.44798  0.76731  0.50181  1.0000
  H   H22       1.0  0.94523  0.72986  0.49420  1.0000
  H   H23       1.0  0.55185  0.23700  0.00186  1.0000
  C   C38       1.0  0.54291  0.03832  0.26631  1.0000
  C   C39       1.0  0.95480  0.53812  0.21831  1.0000
  C   C40       1.0  0.94866  0.46808  0.21986  1.0000
  C   C41       1.0  0.59895  0.03046  0.31172  1.0000
  C   C42       1.0  0.90045  0.53002  0.19180  1.0000
  C   C43       1.0  0.93178  0.46237  0.33212  1.0000
  C   C44       1.0  0.63860  0.05248  0.33253  1.0000
  C   C45       1.0  0.86058  0.55177  0.17599  1.0000
  C   C46       1.0  0.88931  0.44249  0.31497  1.0000
  C   C47       1.0  0.62524  0.08397  0.31422  1.0000
  C   C48       1.0  0.87181  0.58326  0.18036  1.0000
  C   C49       1.0  0.86419  0.42678  0.18614  1.0000
  C   C50       1.0  0.57013  0.09227  0.27182  1.0000
  C   C51       1.0  0.92468  0.59187  0.19946  1.0000
  C   C52       1.0  0.87810  0.43414  0.06929  1.0000
  C   C53       1.0  0.53066  0.07020  0.24884  1.0000
  C   C54       1.0  0.96466  0.57005  0.21852  1.0000
  C   C55       1.0  0.92003  0.45456  0.08670  1.0000
  C   C56       1.0  0.93280  0.23461  0.33104  1.0000
  C   C57       1.0  0.56696  0.72712  0.17397  1.0000
  C   C58       1.0  0.43491  0.73610  0.33120  1.0000
  C   C59       1.0  0.93055  0.76351  0.31855  1.0000
  C   C60       1.0  0.56617  0.26820  0.17321  1.0000
  C   C61       1.0  0.73032  0.15623  0.30407  1.0000
  C   C62       1.0  0.77355  0.65492  0.22777  1.0000
  C   C63       1.0  0.26971  0.84581  0.20241  1.0000
  C   C64       1.0  0.23041  0.34540  0.28200  1.0000
  C   C65       1.0  0.75459  0.18246  0.27775  1.0000
  C   C66       1.0  0.75152  0.68087  0.25874  1.0000
  C   C67       1.0  0.24623  0.81951  0.23130  1.0000
  C   C68       1.0  0.25210  0.31898  0.25385  1.0000
  C   C69       1.0  0.74293  0.21163  0.31391  1.0000
  C   C70       1.0  0.75752  0.71031  0.20456  1.0000
  C   C71       1.0  0.25654  0.79050  0.19088  1.0000
  C   C72       1.0  0.24119  0.28961  0.29867  1.0000
  C   C73       1.0  0.71041  0.21254  0.39269  1.0000
  C   C74       1.0  0.78339  0.71218  0.10899  1.0000
  C   C75       1.0  0.28650  0.78971  0.10540  1.0000
  C   C76       1.0  0.21132  0.28834  0.38466  1.0000
  C   C77       1.0  0.68697  0.18622  0.42211  1.0000
  C   C78       1.0  0.80421  0.68614  0.07447  1.0000
  C   C79       1.0  0.30900  0.81612  0.07304  1.0000
  C   C80       1.0  0.19093  0.31479  0.41695  1.0000
  H   H24       1.0  0.68101  0.04547  0.36609  1.0000
  H   H25       1.0  0.81991  0.54451  0.16027  1.0000
  H   H26       1.0  0.87705  0.43770  0.40316  1.0000
  H   H27       1.0  0.55811  0.11636  0.25177  1.0000
  H   H28       1.0  0.93483  0.61602  0.20583  1.0000
  H   H29       1.0  0.85674  0.42347  0.96608  1.0000
  H   H30       1.0  0.48891  0.07815  0.21487  1.0000
  H   H31       1.0  0.00484  0.57817  0.23555  1.0000
  H   H32       1.0  0.93182  0.45908  0.99732  1.0000
  H   H33       1.0  0.73714  0.13419  0.26784  1.0000
  H   H34       1.0  0.77073  0.63256  0.27552  1.0000
  H   H35       1.0  0.26389  0.86773  0.24139  1.0000
  H   H36       1.0  0.23728  0.36772  0.24109  1.0000
  H   H37       1.0  0.78127  0.18033  0.22269  1.0000
  H   H38       1.0  0.73061  0.67830  0.32969  1.0000
  H   H39       1.0  0.22115  0.82129  0.29111  1.0000
  H   H40       1.0  0.27673  0.32120  0.19244  1.0000
  H   H41       1.0  0.66158  0.18756  0.48190  1.0000
  H   H42       1.0  0.82340  0.68811  0.99888  1.0000
  H   H43       1.0  0.33214  0.81491  0.00725  1.0000
  H   H44       1.0  0.16846  0.31329  0.48482  1.0000
  C   C81       1.0  0.26212  0.26124  0.26127  1.0000
  C   C82       1.0  0.73347  0.26660  0.22213  1.0000
  C   C83       1.0  0.76452  0.76466  0.28067  1.0000
  C   C84       1.0  0.23614  0.76198  0.23619  1.0000
  C   C85       1.0  0.73536  0.73815  0.24295  1.0000
  C   C86       1.0  0.26760  0.73567  0.28354  1.0000
  C   C87       1.0  0.23180  0.23508  0.22342  1.0000
  C   C88       1.0  0.76432  0.24002  0.27069  1.0000
  H   H45       1.0  0.85021  0.73160  0.47095  1.0000
  H   H46       1.0  0.64757  0.23678  0.03097  1.0000
  H   H47       1.0  0.85190  0.26726  0.47130  1.0000
  H   H48       1.0  0.35252  0.76617  0.47366  1.0000
  H   H49       1.0  0.64538  0.76312  0.02614  1.0000
  H   H50       1.0  0.78674  0.73428  0.06055  1.0000
  H   H51       1.0  0.70319  0.23426  0.43005  1.0000
  H   H52       1.0  0.20472  0.26631  0.42774  1.0000
  H   H53       1.0  0.29219  0.76802  0.06495  1.0000
  H   H54       1.0  0.02477  0.77136  0.15323  1.0000
  H   H55       1.0  0.97228  0.76291  0.32776  1.0000
  H   H56       1.0  0.52397  0.26857  0.16016  1.0000
  H   H57       1.0  0.47291  0.26958  0.33800  1.0000
  H   H58       1.0  0.97525  0.23331  0.34667  1.0000
  H   H59       1.0  0.02219  0.23291  0.16216  1.0000
  H   H60       1.0  0.47705  0.73636  0.34364  1.0000
  H   H61       1.0  0.52434  0.72396  0.15367  1.0000
  H   H62       1.0  0.95241  0.47346  0.43426  1.0000
  H   H63       1.0  0.61221  0.00671  0.33154  1.0000
  H   H64       1.0  0.88886  0.50627  0.18595  1.0000
  C   C89       1.0  0.00007  0.48512  0.24757  1.0000
  C   C90       1.0  0.50071  0.98503  0.24087  1.0000
  C   C91       1.0  0.00150  0.51663  0.24782  1.0000
  C   C92       1.0  0.49727  0.01653  0.23886  1.0000
  N   N9        1.0  0.33557  0.10343  0.68191  1.0000
  N   N10       1.0  0.67298  0.09761  0.81265  1.0000
  N   N11       1.0  0.82559  0.59548  0.68842  1.0000
  N   N12       1.0  0.16552  0.60465  0.83195  1.0000
  N   N13       1.0  0.66466  0.89270  0.81938  1.0000
  N   N14       1.0  0.32889  0.90104  0.68789  1.0000
  N   N15       1.0  0.17206  0.40023  0.80304  1.0000
  N   N16       1.0  0.83647  0.39464  0.67105  1.0000
  C   C93       1.0  0.33473  0.13026  0.62170  1.0000
  C   C94       1.0  0.67226  0.12163  0.88171  1.0000
  C   C95       1.0  0.83323  0.62241  0.64288  1.0000
  C   C96       1.0  0.16738  0.62969  0.89740  1.0000
  C   C97       1.0  0.66794  0.86658  0.88808  1.0000
  C   C98       1.0  0.33036  0.87615  0.62506  1.0000
  C   C99       1.0  0.16979  0.37453  0.86831  1.0000
  C   C100      1.0  0.83388  0.36937  0.60689  1.0000
  C   C101      1.0  0.30385  0.15613  0.63736  1.0000
  C   C102      1.0  0.70206  0.14917  0.87357  1.0000
  C   C103      1.0  0.10594  0.21601  0.79073  1.0000
  C   C104      1.0  0.39390  0.71749  0.72189  1.0000
  C   C105      1.0  0.89087  0.78407  0.70525  1.0000
  C   C106      1.0  0.10429  0.78307  0.77795  1.0000
  C   C107      1.0  0.38990  0.28356  0.70551  1.0000
  C   C108      1.0  0.16034  0.21710  0.80961  1.0000
  C   C109      1.0  0.33961  0.71936  0.70303  1.0000
  C   C110      1.0  0.83663  0.78086  0.68523  1.0000
  C   C111      1.0  0.15912  0.78234  0.80085  1.0000
  C   C112      1.0  0.33562  0.28204  0.68705  1.0000
  C   C113      1.0  0.17553  0.23487  0.71377  1.0000
  C   C114      1.0  0.32435  0.73688  0.79368  1.0000
  C   C115      1.0  0.82317  0.76316  0.78452  1.0000
  C   C116      1.0  0.17670  0.76498  0.71415  1.0000
  C   C117      1.0  0.32098  0.26449  0.78459  1.0000
  C   C118      1.0  0.13440  0.25133  0.59834  1.0000
  C   C119      1.0  0.36526  0.75290  0.90227  1.0000
  C   C120      1.0  0.86572  0.74858  0.90384  1.0000
  C   C121      1.0  0.13781  0.74768  0.60710  1.0000
  C   C122      1.0  0.36243  0.24818  0.89980  1.0000
  C   C123      1.0  0.08009  0.25045  0.57978  1.0000
  C   C124      1.0  0.41946  0.75154  0.91954  1.0000
  C   C125      1.0  0.91988  0.75133  0.92246  1.0000
  C   C126      1.0  0.08315  0.74802  0.58553  1.0000
  C   C127      1.0  0.41672  0.24954  0.91799  1.0000
  H   H65       1.0  0.35916  0.13501  0.55926  1.0000
  H   H66       1.0  0.64595  0.12332  0.94021  1.0000
  H   H67       1.0  0.86616  0.62643  0.60695  1.0000
  H   H68       1.0  0.14413  0.63270  0.96333  1.0000
  H   H69       1.0  0.64682  0.86246  0.95954  1.0000
  H   H70       1.0  0.35836  0.87324  0.57236  1.0000
  H   H71       1.0  0.14316  0.37166  0.92588  1.0000
  H   H72       1.0  0.85618  0.36611  0.53875  1.0000
  H   H73       1.0  0.09556  0.20257  0.86826  1.0000
  H   H74       1.0  0.40439  0.70399  0.64927  1.0000
  H   H75       1.0  0.89999  0.79773  0.62611  1.0000
  H   H76       1.0  0.09200  0.79660  0.84719  1.0000
  H   H77       1.0  0.39994  0.29697  0.62733  1.0000
  H   H78       1.0  0.19138  0.20502  0.90332  1.0000
  H   H79       1.0  0.30863  0.70802  0.61309  1.0000
  H   H80       1.0  0.80442  0.79130  0.58855  1.0000
  H   H81       1.0  0.18875  0.79459  0.89002  1.0000
  H   H82       1.0  0.30413  0.29387  0.59332  1.0000
  H   H83       1.0  0.04929  0.26365  0.48957  1.0000
  H   H84       1.0  0.45026  0.76446  0.00355  1.0000
  H   H85       1.0  0.95207  0.73951  0.01490  1.0000
  H   H86       1.0  0.05398  0.73430  0.50197  1.0000
  H   H87       1.0  0.44810  0.23670  0.00836  1.0000
  C   C128      1.0  0.45714  0.03658  0.72363  1.0000
  C   C129      1.0  0.55484  0.03113  0.77646  1.0000
  C   C130      1.0  0.04529  0.53681  0.78028  1.0000
  C   C131      1.0  0.54568  0.96113  0.77679  1.0000
  C   C132      1.0  0.95689  0.46180  0.71419  1.0000
  C   C133      1.0  0.40126  0.02912  0.67727  1.0000
  C   C134      1.0  0.56466  0.04162  0.65676  1.0000
  C   C135      1.0  0.09974  0.52921  0.80469  1.0000
  C   C136      1.0  0.59858  0.96853  0.78812  1.0000
  C   C137      1.0  0.90105  0.46974  0.67131  1.0000
  C   C138      1.0  0.36153  0.05089  0.66275  1.0000
  C   C139      1.0  0.60665  0.06176  0.67323  1.0000
  C   C140      1.0  0.13900  0.55136  0.82437  1.0000
  C   C141      1.0  0.63762  0.94610  0.80583  1.0000
  C   C142      1.0  0.86164  0.44786  0.65538  1.0000
  C   C143      1.0  0.37474  0.08192  0.68739  1.0000
  C   C144      1.0  0.63801  0.07345  0.80980  1.0000
  C   C145      1.0  0.12699  0.58266  0.82516  1.0000
  C   C146      1.0  0.62682  0.91476  0.81647  1.0000
  C   C147      1.0  0.87503  0.41638  0.67511  1.0000
  C   C148      1.0  0.42960  0.08999  0.72863  1.0000
  C   C149      1.0  0.63100  0.06137  0.93184  1.0000
  C   C150      1.0  0.07381  0.59062  0.80650  1.0000
  C   C151      1.0  0.57520  0.90700  0.81070  1.0000
  C   C152      1.0  0.92954  0.40793  0.70984  1.0000
  C   C153      1.0  0.46931  0.06803  0.74673  1.0000
  C   C154      1.0  0.59013  0.04012  0.91491  1.0000
  C   C155      1.0  0.03456  0.56844  0.78514  1.0000
  C   C156      1.0  0.53627  0.92945  0.79194  1.0000
  C   C157      1.0  0.96890  0.42991  0.72870  1.0000
  C   C158      1.0  0.06555  0.23273  0.67590  1.0000
  C   C159      1.0  0.43405  0.73364  0.82992  1.0000
  C   C160      1.0  0.93278  0.76922  0.82379  1.0000
  C   C161      1.0  0.06596  0.76601  0.66989  1.0000
  C   C162      1.0  0.43076  0.26738  0.82136  1.0000
  C   C163      1.0  0.27155  0.15361  0.71626  1.0000
  C   C164      1.0  0.74046  0.14920  0.81287  1.0000
  C   C165      1.0  0.24732  0.17943  0.74133  1.0000
  C   C166      1.0  0.76306  0.17638  0.78963  1.0000
  C   C167      1.0  0.25579  0.20903  0.69343  1.0000
  C   C168      1.0  0.74698  0.20506  0.82008  1.0000
  C   C169      1.0  0.28551  0.21107  0.60715  1.0000
  C   C170      1.0  0.71125  0.20451  0.88994  1.0000
  C   C171      1.0  0.30888  0.18520  0.57936  1.0000
  C   C172      1.0  0.68952  0.17722  0.91670  1.0000
  H   H88       1.0  0.31934  0.04405  0.62960  1.0000
  H   H89       1.0  0.61352  0.07004  0.57962  1.0000
  H   H90       1.0  0.18000  0.54459  0.84002  1.0000
  H   H91       1.0  0.67737  0.95269  0.81117  1.0000
  H   H92       1.0  0.81948  0.45501  0.62465  1.0000
  H   H93       1.0  0.44126  0.11365  0.75234  1.0000
  H   H94       1.0  0.65662  0.06902  0.03939  1.0000
  H   H95       1.0  0.06289  0.61464  0.80402  1.0000
  H   H96       1.0  0.56514  0.88299  0.81614  1.0000
  H   H97       1.0  0.94119  0.38378  0.72709  1.0000
  H   H98       1.0  0.51100  0.07560  0.78101  1.0000
  H   H99       1.0  0.58407  0.03158  0.00951  1.0000
  H   H100      1.0  0.99422  0.57601  0.77035  1.0000
  H   H101      1.0  0.49714  0.92220  0.78774  1.0000
  H   H102      1.0  0.01032  0.42196  0.75743  1.0000
  H   H103      1.0  0.26664  0.13109  0.75915  1.0000
  H   H104      1.0  0.75136  0.12757  0.78177  1.0000
  H   H105      1.0  0.22310  0.17666  0.80372  1.0000
  H   H106      1.0  0.79284  0.17538  0.74367  1.0000
  H   H107      1.0  0.33135  0.18730  0.51166  1.0000
  H   H108      1.0  0.66189  0.17766  0.97021  1.0000
  C   C173      1.0  0.26314  0.26324  0.76996  1.0000
  C   C174      1.0  0.73671  0.26086  0.73826  1.0000
  C   C175      1.0  0.76534  0.75994  0.76716  1.0000
  C   C176      1.0  0.23473  0.76464  0.73075  1.0000
  C   C177      1.0  0.73590  0.73351  0.72709  1.0000
  C   C178      1.0  0.26644  0.73841  0.77756  1.0000
  C   C179      1.0  0.23350  0.23690  0.73069  1.0000
  C   C180      1.0  0.76735  0.23426  0.78091  1.0000
  H   H109      1.0  0.15072  0.73393  0.53996  1.0000
  H   H110      1.0  0.85636  0.73494  0.98247  1.0000
  H   H111      1.0  0.35204  0.23450  0.97646  1.0000
  H   H112      1.0  0.14517  0.26494  0.52227  1.0000
  H   H113      1.0  0.35453  0.76645  0.97411  1.0000
  H   H114      1.0  0.70058  0.22578  0.92383  1.0000
  H   H115      1.0  0.28996  0.23322  0.56100  1.0000
  H   H116      1.0  0.02318  0.76668  0.65159  1.0000
  H   H117      1.0  0.97507  0.77162  0.83948  1.0000
  H   H118      1.0  0.52424  0.27037  0.64371  1.0000
  H   H119      1.0  0.47308  0.26869  0.83600  1.0000
  H   H120      1.0  0.97606  0.23400  0.83563  1.0000
  H   H121      1.0  0.02318  0.23197  0.66124  1.0000
  H   H122      1.0  0.47621  0.73240  0.84312  1.0000
  H   H123      1.0  0.52635  0.73076  0.66562  1.0000
  H   H124      1.0  0.60948  0.99216  0.78031  1.0000
  H   H125      1.0  0.88778  0.49348  0.65041  1.0000
  H   H126      1.0  0.38819  0.00584  0.65204  1.0000
  H   H127      1.0  0.53857  0.03437  0.54895  1.0000
  H   H128      1.0  0.11179  0.50558  0.80603  1.0000
  C   C181      1.0  0.00271  0.48358  0.74538  1.0000
  C   C182      1.0  0.49988  0.98319  0.74842  1.0000
  C   C183      1.0  0.99954  0.51500  0.74848  1.0000
  C   C184      1.0  0.50296  0.01465  0.75021  1.0000
  C  Sn1       1.0  0.23226  0.34299  0.75139  1.0000
  C   C185      1.0  0.19484  0.34624  0.81275  1.0000
  C  Sn2       1.0  0.18482  0.32172  0.89086  1.0000
  C  Sn3       1.0  0.21281  0.29336  0.90809  1.0000
  C   C186      1.0  0.25021  0.29012  0.84678  1.0000
  C  Sn4       1.0  0.26026  0.31463  0.76862  1.0000
  O  Te1       1.0  0.24164  0.36780  0.67375  1.0000
  O  Te2       1.0  0.14720  0.32552  0.95116  1.0000
  O  Te3       1.0  0.20339  0.26854  0.98581  1.0000
  O  Te4       1.0  0.29785  0.31084  0.70837  1.0000
  Mg  Mg1       1.0  0.99213  0.29480  0.04757  1.0000
  Mg  Mg2       1.0  0.29670  0.35137  0.61201  1.0000
  C  Sn5       1.0  0.06544  0.45060  0.63832  1.0000
  C   C187      1.0  0.04893  0.46000  0.74404  1.0000
  C  Sn6       1.0  0.08231  0.45433  0.89105  1.0000
  C  Sn7       1.0  0.13328  0.43896  0.93328  1.0000
  C   C188      1.0  0.14978  0.42957  0.82759  1.0000
  C  Sn8       1.0  0.11642  0.43523  0.68055  1.0000
  O  Te5       1.0  0.03142  0.45651  0.49199  1.0000
  O  Te6       1.0  0.06491  0.46394  0.99476  1.0000
  O  Te7       1.0  0.01104  0.44287  0.07975  1.0000
  O  Te8       1.0  0.13380  0.42563  0.57687  1.0000
  Mg  Mg3       1.0  0.96939  0.46044  0.18051  1.0000
  Mg  Mg4       1.0  0.07309  0.43896  0.39111  1.0000
  C  Sn9       1.0  0.08417  0.55519  0.42051  1.0000
  C   C189      1.0  0.05086  0.54103  0.29364  1.0000
  C  Sn10      1.0  0.06430  0.54171  0.17459  1.0000
  C  Sn11      1.0  0.11206  0.55683  0.18253  1.0000
  C   C190      1.0  0.14535  0.57097  0.30935  1.0000
  C  Sn12      1.0  0.13193  0.57032  0.42845  1.0000
  O  Te9       1.0  0.06994  0.55424  0.53821  1.0000
  O  Te10      1.0  0.03035  0.52739  0.04891  1.0000
  O  Te11      1.0  0.12627  0.55778  0.06470  1.0000
  O  Te12      1.0  0.16586  0.58461  0.55408  1.0000
  Mg  Mg5       1.0  0.22332  0.52511  0.91741  1.0000
  Mg  Mg6       1.0  0.12922  0.57708  0.68567  1.0000
  C  Sn13      1.0  0.12256  0.75515  0.06651  1.0000
  C   C191      1.0  0.16812  0.76801  0.17426  1.0000
  C  Sn14      1.0  0.16458  0.77962  0.29624  1.0000
  C  Sn15      1.0  0.11448  0.77833  0.31089  1.0000
  C   C192      1.0  0.06896  0.76547  0.20321  1.0000
  C  Sn16      1.0  0.07245  0.75386  0.08117  1.0000
  O  Te13      1.0  0.28330  0.73386  0.94549  1.0000
  O  Te14      1.0  0.21068  0.79238  0.40250  1.0000
  O  Te15      1.0  0.11004  0.78982  0.43204  1.0000
  O  Te16      1.0  0.18268  0.73128  0.97497  1.0000
  Mg  Mg7       1.0  0.18419  0.80496  0.54750  1.0000
  Mg  Mg8       1.0  0.20912  0.71868  0.82996  1.0000
  C  Sn17      1.0  0.78264  0.33792  0.76267  1.0000
  C   C193      1.0  0.81046  0.34099  0.67336  1.0000
  C  Sn18      1.0  0.80672  0.31843  0.57640  1.0000
  C  Sn19      1.0  0.77447  0.29228  0.56846  1.0000
  C   C194      1.0  0.74667  0.28923  0.65770  1.0000
  C  Sn20      1.0  0.75039  0.31177  0.75473  1.0000
  O  Te17      1.0  0.78696  0.36076  0.85880  1.0000
  O  Te18      1.0  0.83493  0.32200  0.48826  1.0000
  O  Te19      1.0  0.77017  0.26944  0.47223  1.0000
  O  Te20      1.0  0.72220  0.30822  0.84281  1.0000
  Mg  Mg9       1.0  0.81620  0.28468  0.37463  1.0000
  Mg  Mg10      1.0  0.74087  0.34553  0.95642  1.0000
  C  Sn21      1.0  0.25172  0.17094  0.25920  1.0000
  C   C195      1.0  0.25903  0.20114  0.22045  1.0000
  C  Sn22      1.0  0.28359  0.20725  0.12517  1.0000
  C  Sn23      1.0  0.30119  0.18267  0.06733  1.0000
  C   C196      1.0  0.29387  0.15249  0.10607  1.0000
  C  Sn24      1.0  0.26932  0.14635  0.20137  1.0000
  O  Te21      1.0  0.22706  0.16536  0.35463  1.0000
  O  Te22      1.0  0.29047  0.23764  0.08806  1.0000
  O  Te23      1.0  0.48214  0.17845  0.97184  1.0000
  O  Te24      1.0  0.26243  0.11599  0.23845  1.0000
  Mg  Mg11      1.0  0.48250  0.22373  0.95396  1.0000
  Mg  Mg12      1.0  0.22666  0.12005  0.37248  1.0000
  C  Sn25      1.0  0.91926  0.55910  0.59033  1.0000
  C   C197      1.0  0.94986  0.53977  0.71009  1.0000
  C  Sn26      1.0  0.93188  0.53349  0.81913  1.0000
  C  Sn27      1.0  0.88226  0.54680  0.80820  1.0000
  C   C198      1.0  0.85169  0.56611  0.68849  1.0000
  C  Sn28      1.0  0.86965  0.57240  0.57941  1.0000
  O  Te25      1.0  0.93802  0.56505  0.48262  1.0000
  O  Te26      1.0  0.96318  0.51411  0.93784  1.0000
  O  Te27      1.0  0.86353  0.54083  0.91605  1.0000
  O  Te28      1.0  0.83837  0.59177  0.46074  1.0000
  Mg  Mg13      1.0  0.76423  0.52277  0.05663  1.0000
  Mg  Mg14      1.0  0.88099  0.59294  0.34186  1.0000
  C  Sn29      1.0  0.36877  0.05780  0.04851  1.0000
  C   C199      1.0  0.35261  0.06636  0.15616  1.0000
  C  Sn30      1.0  0.38599  0.05961  0.30229  1.0000
  C  Sn31      1.0  0.43659  0.04400  0.34167  1.0000
  C   C200      1.0  0.45273  0.03546  0.23406  1.0000
  C  Sn32      1.0  0.41937  0.04220  0.08789  1.0000
  O  Te29      1.0  0.49103  0.05496  0.90311  1.0000
  O  Te30      1.0  0.36896  0.06839  0.40797  1.0000
  O  Te31      1.0  0.47061  0.03703  0.48721  1.0000
  O  Te32      1.0  0.59266  0.02361  0.98226  1.0000
  Mg  Mg15      1.0  0.42954  0.05374  0.59144  1.0000
  Mg  Mg16      1.0  0.53212  0.03826  0.79877  1.0000
  C  Sn33      1.0  0.60540  0.95672  0.42944  1.0000
  C   C201      1.0  0.57082  0.97314  0.30342  1.0000
  C  Sn34      1.0  0.56668  0.96482  0.16792  1.0000
  C  Sn35      1.0  0.59772  0.93955  0.15814  1.0000
  C   C202      1.0  0.63227  0.92315  0.28410  1.0000
  C  Sn36      1.0  0.63644  0.93145  0.41966  1.0000
  O  Te33      1.0  0.60890  0.96544  0.56375  1.0000
  O  Te34      1.0  0.53185  0.98159  0.04347  1.0000
  O  Te35      1.0  0.59420  0.93084  0.02368  1.0000
  O  Te36      1.0  0.67124  0.91470  0.54405  1.0000
  Mg  Mg17      1.0  0.69733  0.95098  0.88533  1.0000
  Mg  Mg18      1.0  0.66204  0.93545  0.70224  1.0000
  C  Sn37      1.0  0.11948  0.22153  0.32520  1.0000
  C   C203      1.0  0.07405  0.23649  0.21737  1.0000
  C  Sn38      1.0  0.07709  0.24941  0.09263  1.0000
  C  Sn39      1.0  0.12656  0.24731  0.07524  1.0000
  C   C204      1.0  0.17194  0.23235  0.18300  1.0000
  C  Sn40      1.0  0.16894  0.21943  0.30780  1.0000
  O  Te37      1.0  0.11551  0.20878  0.44900  1.0000
  O  Te38      1.0  0.18741  0.25444  0.98635  1.0000
  O  Te39      1.0  0.28677  0.25025  0.95130  1.0000
  O  Te40      1.0  0.21486  0.20458  0.41402  1.0000
  Mg  Mg19      1.0  0.21305  0.26814  0.83698  1.0000
  Mg  Mg20      1.0  0.18926  0.19085  0.56339  1.0000
  C  Sn41      1.0  0.80340  0.31624  0.06181  1.0000
  C   C205      1.0  0.79219  0.34621  0.08527  1.0000
  C  Sn42      1.0  0.76275  0.35169  0.16759  1.0000
  C  Sn43      1.0  0.74416  0.32667  0.22780  1.0000
  C   C206      1.0  0.75538  0.29672  0.20435  1.0000
  C  Sn44      1.0  0.78480  0.29122  0.12202  1.0000
  O  Te41      1.0  0.98917  0.30148  0.97918  1.0000
  O  Te42      1.0  0.75203  0.38186  0.18951  1.0000
  O  Te43      1.0  0.71464  0.33163  0.31048  1.0000
  O  Te44      1.0  0.79554  0.26107  0.10012  1.0000
  Mg  Mg21      1.0  0.71030  0.37684  0.30996  1.0000
  Mg  Mg22      1.0  0.99355  0.25624  0.97975  1.0000
  C  Sn45      1.0  0.65235  0.27525  0.83467  1.0000
  C   C207      1.0  0.67595  0.25879  0.75965  1.0000
  C  Sn46      1.0  0.64386  0.24878  0.62142  1.0000
  C  Sn47      1.0  0.58699  0.25537  0.55677  1.0000
  C   C208      1.0  0.56342  0.27183  0.63176  1.0000
  C  Sn48      1.0  0.59548  0.28184  0.77002  1.0000
  O  Te45      1.0  0.68521  0.28503  0.97274  1.0000
  O  Te46      1.0  0.66839  0.23235  0.54856  1.0000
  O  Te47      1.0  0.55413  0.24557  0.41859  1.0000
  O  Te48      1.0  0.57098  0.29827  0.84285  1.0000
  Mg  Mg23      1.0  0.60647  0.22395  0.36269  1.0000
  Mg  Mg24      1.0  0.47659  0.31651  0.02869  1.0000
  C  Sn49      1.0  0.87327  0.25995  0.88070  1.0000
  C   C209      1.0  0.82945  0.24352  0.78532  1.0000
  C  Sn50      1.0  0.83859  0.21935  0.71201  1.0000
  C  Sn51      1.0  0.89264  0.21142  0.73456  1.0000
  C   C210      1.0  0.93643  0.22784  0.82990  1.0000
  C  Sn52      1.0  0.92733  0.25202  0.90325  1.0000
  O  Te49      1.0  0.86319  0.28403  0.95284  1.0000
  O  Te50      1.0  0.79412  0.20327  0.61716  1.0000
  O  Te51      1.0  0.90270  0.18732  0.66231  1.0000
  O  Te52      1.0  0.97176  0.26810  0.99806  1.0000
  Mg  Mg25      1.0  0.82873  0.17227  0.54413  1.0000
  Mg  Mg26      1.0  0.78092  0.30891  0.07120  1.0000
  C  Sn53      1.0  0.76085  0.82529  0.79147  1.0000
  C   C211      1.0  0.75908  0.79480  0.83665  1.0000
  C  Sn54      1.0  0.72119  0.78581  0.89131  1.0000
  C  Sn55      1.0  0.68428  0.80776  0.90092  1.0000
  C   C212      1.0  0.68606  0.83823  0.85573  1.0000
  C  Sn56      1.0  0.72394  0.84724  0.80108  1.0000
  O  Te53      1.0  0.79906  0.83376  0.73717  1.0000
  O  Te54      1.0  0.72021  0.75520  0.93585  1.0000
  O  Te55      1.0  0.64605  0.79927  0.95528  1.0000
  O  Te56      1.0  0.72493  0.87783  0.75653  1.0000
  Mg  Mg27      1.0  0.50437  0.76468  0.00213  1.0000
  Mg  Mg28      1.0  0.78445  0.87820  0.69017  1.0000
  C  Sn57      1.0  0.39787  0.92904  0.57988  1.0000
  C   C213      1.0  0.37585  0.92079  0.67890  1.0000
  C  Sn58      1.0  0.38619  0.93826  0.79930  1.0000
  C  Sn59      1.0  0.41920  0.96455  0.82117  1.0000
  C   C214      1.0  0.44119  0.97279  0.72219  1.0000
  C  Sn60      1.0  0.43088  0.95532  0.60175  1.0000
  O  Te57      1.0  0.38700  0.91123  0.46027  1.0000
  O  Te58      1.0  0.36374  0.92955  0.89682  1.0000
  O  Te59      1.0  0.43006  0.98235  0.94091  1.0000
  O  Te60      1.0  0.45331  0.96402  0.50426  1.0000
  Mg  Mg29      1.0  0.23398  0.97100  0.04322  1.0000
  Mg  Mg30      1.0  0.42679  0.93242  0.35779  1.0000
  C  Sn61      1.0  0.68420  0.79745  0.33618  1.0000
  C   C215      1.0  0.72602  0.79409  0.29009  1.0000
  C  Sn62      1.0  0.75915  0.81879  0.29083  1.0000
  C  Sn63      1.0  0.75032  0.84745  0.33873  1.0000
  C   C216      1.0  0.70853  0.85080  0.38481  1.0000
  C  Sn64      1.0  0.67537  0.82611  0.38408  1.0000
  O  Te61      1.0  0.65158  0.77245  0.33453  1.0000
  O  Te62      1.0  0.80069  0.81488  0.24420  1.0000
  O  Te63      1.0  0.78298  0.87246  0.34034  1.0000
  O  Te64      1.0  0.63386  0.83001  0.43070  1.0000
  Mg  Mg31      1.0  0.83433  0.85576  0.26658  1.0000
  Mg  Mg32      1.0  0.60021  0.78914  0.40843  1.0000
  C  Sn65      1.0  0.18282  0.69247  0.89962  1.0000
  C   C217      1.0  0.18705  0.66248  0.86230  1.0000
  C  Sn66      1.0  0.22698  0.65454  0.81504  1.0000
  C  Sn67      1.0  0.26347  0.67704  0.80496  1.0000
  C   C218      1.0  0.25924  0.70700  0.84229  1.0000
  C  Sn68      1.0  0.21931  0.71496  0.88954  1.0000
  O  Te65      1.0  0.14260  0.69989  0.94661  1.0000
  O  Te66      1.0  0.23040  0.62442  0.77828  1.0000
  O  Te67      1.0  0.30371  0.66959  0.75792  1.0000
  O  Te68      1.0  0.21589  0.74506  0.92631  1.0000
  Mg  Mg33      1.0  0.29209  0.62550  0.72019  1.0000
  Mg  Mg34      1.0  0.15424  0.74400  0.98448  1.0000
  C  Sn69      1.0  0.10471  0.46832  0.24756  1.0000
  C   C219      1.0  0.05234  0.46418  0.24149  1.0000
  C  Sn70      1.0  0.03782  0.43602  0.28453  1.0000
  C  Sn71      1.0  0.07646  0.41147  0.33477  1.0000
  C   C220      1.0  0.12879  0.41561  0.34084  1.0000
  C  Sn72      1.0  0.14334  0.44377  0.29780  1.0000
  O  Te69      1.0  0.11834  0.49668  0.20399  1.0000
  O  Te70      1.0  0.98522  0.43243  0.27745  1.0000
  O  Te71      1.0  0.06278  0.38310  0.37835  1.0000
  O  Te72      1.0  0.19591  0.44737  0.30488  1.0000
  Mg  Mg35      1.0  0.98608  0.38946  0.34888  1.0000
  Mg  Mg36      1.0  0.19511  0.49033  0.23356  1.0000
  C  Sn73      1.0  0.39284  0.96831  0.21859  1.0000
  C   C221      1.0  0.44763  0.96405  0.24503  1.0000
  C  Sn74      1.0  0.46689  0.93540  0.22930  1.0000
  C  Sn75      1.0  0.43061  0.91049  0.18617  1.0000
  C   C222      1.0  0.37585  0.91476  0.15973  1.0000
  C  Sn76      1.0  0.35656  0.94340  0.17545  1.0000
  O  Te73      1.0  0.37448  0.99715  0.23498  1.0000
  O  Te74      1.0  0.52184  0.93170  0.25639  1.0000
  O  Te75      1.0  0.44902  0.88164  0.16979  1.0000
  O  Te76      1.0  0.30164  0.94711  0.14836  1.0000
  Mg  Mg37      1.0  0.52741  0.88802  0.21915  1.0000
  Mg  Mg38      1.0  0.29603  0.99078  0.18550  1.0000
  C  Sn77      1.0  0.26039  0.65436  0.35653  1.0000
  C   C223      1.0  0.22043  0.65101  0.41013  1.0000
  C  Sn78      1.0  0.19050  0.67645  0.41727  1.0000
  C  Sn79      1.0  0.20068  0.70584  0.36976  1.0000
  C   C224      1.0  0.24061  0.70918  0.31618  1.0000
  C  Sn80      1.0  0.27057  0.68375  0.30902  1.0000
  O  Te77      1.0  0.28982  0.62861  0.35037  1.0000
  O  Te78      1.0  0.15077  0.67253  0.47132  1.0000
  O  Te79      1.0  0.17121  0.73159  0.37597  1.0000
  O  Te80      1.0  0.31027  0.68766  0.25499  1.0000
  Mg  Mg39      1.0  0.12136  0.71457  0.45806  1.0000
  Mg  Mg40      1.0  0.33968  0.64563  0.26813  1.0000
  C  Sn81      1.0  0.37628  0.25348  0.43242  1.0000
  C   C225      1.0  0.33020  0.26728  0.32182  1.0000
  C  Sn82      1.0  0.33289  0.27956  0.19558  1.0000
  C  Sn83      1.0  0.38267  0.27800  0.17951  1.0000
  C   C226      1.0  0.42871  0.26420  0.29006  1.0000
  C  Sn84      1.0  0.42606  0.25192  0.41635  1.0000
  O  Te81      1.0  0.37265  0.24135  0.55768  1.0000
  O  Te82      1.0  0.28628  0.29325  0.08652  1.0000
  O  Te83      1.0  0.38627  0.29014  0.05412  1.0000
  O  Te84      1.0  0.47263  0.23823  0.52536  1.0000
  Mg  Mg41      1.0  0.46794  0.29665  0.93606  1.0000
  Mg  Mg42      1.0  0.44729  0.22499  0.67583  1.0000
  C  Sn85      1.0  0.83066  0.68498  0.66971  1.0000
  C   C227      1.0  0.81447  0.65483  0.67853  1.0000
  C  Sn86      1.0  0.76332  0.64884  0.67736  1.0000
  C  Sn87      1.0  0.72758  0.67350  0.66706  1.0000
  C   C228      1.0  0.74376  0.70363  0.65822  1.0000
  C  Sn88      1.0  0.79492  0.70964  0.65941  1.0000
  O  Te85      1.0  0.88198  0.69043  0.67106  1.0000
  O  Te86      1.0  0.74805  0.61851  0.68634  1.0000
  O  Te87      1.0  0.67622  0.66803  0.66572  1.0000
  O  Te88      1.0  0.81018  0.73995  0.65041  1.0000
  Mg  Mg43      1.0  0.67397  0.62278  0.68033  1.0000
  Mg  Mg44      1.0  0.88424  0.73571  0.65633  1.0000
  C  Sn89      1.0  0.30939  0.79752  0.64838  1.0000
  C   C229      1.0  0.27113  0.79375  0.70754  1.0000
  C  Sn90      1.0  0.24087  0.81883  0.71663  1.0000
  C  Sn91      1.0  0.24898  0.84831  0.66544  1.0000
  C   C230      1.0  0.28721  0.85208  0.60630  1.0000
  C  Sn92      1.0  0.31751  0.82700  0.59719  1.0000
  O  Te89      1.0  0.33920  0.77212  0.64037  1.0000
  O  Te90      1.0  0.20286  0.81449  0.77625  1.0000
  O  Te91      1.0  0.21914  0.87373  0.67350  1.0000
  O  Te92      1.0  0.35548  0.83134  0.53759  1.0000
  Mg  Mg45      1.0  0.17214  0.85618  0.76355  1.0000
  Mg  Mg46      1.0  0.38620  0.78966  0.55017  1.0000
  C  Sn93      1.0  0.59106  0.74540  0.55701  1.0000
  C   C231      1.0  0.56911  0.72888  0.64071  1.0000
  C  Sn94      1.0  0.60330  0.71555  0.77572  1.0000
  C  Sn95      1.0  0.66064  0.71880  0.82822  1.0000
  C   C232      1.0  0.68257  0.73531  0.74455  1.0000
  C  Sn96      1.0  0.64840  0.74865  0.60951  1.0000
  O  Te93      1.0  0.55610  0.75853  0.42236  1.0000
  O  Te94      1.0  0.58040  0.69913  0.85741  1.0000
  O  Te95      1.0  0.69560  0.70565  0.96298  1.0000
  O  Te96      1.0  0.67128  0.76506  0.52785  1.0000
  Mg  Mg47      1.0  0.48865  0.69530  0.03418  1.0000
  Mg  Mg48      1.0  0.60679  0.77874  0.35111  1.0000
