data_image0
_chemical_formula_structural       N8C16N8H24C4N8C16N8H24C6Sn2C2HTe2HMgC2Sn2C2HTe2HMgC2Sn2C2HTe2HMgC2Sn2C2HTe2HMgC2Sn2C2HTe2HMgC2Sn2C2HTe2HMgC2Sn2C2HTe2HMgC2Sn2C2HTe2HMgC2Sn2C2HTe2HMgC2Sn2C2HTe2HMgC2Sn2C2HTe2HMgC2Sn2C2HTe2HMgC2Sn2C2HTe2HMgC2Sn2C2HTe2HMgC2Sn2C2HTe2HMgC2Sn2C2HTe2HMgC2Sn2C2HTe2HMgC2Sn2C2HTe2HMgC2Sn2C2HTe2HMgC2Sn2C2HTe2HMgC2Sn2C2HTe2HMgC2Sn2C2HTe2HMgC2Sn2C2HTe2HMgC2Sn2C2HTe2HMgC2Sn2C2HTe2HMgC2Sn2C2HTe2HMgC2Sn2C2HTe2HMgC2Sn2C2HTe2HMgC2Sn2C2HTe2HMgC2Sn2C2HTe2HMgC2Sn2C2HTe2HMgC2Sn2C2HTe2HMgC2Sn2C2HTe2HMgC2Sn2C2HTe2HMgC2Sn2C2HTe2HMgC2Sn2C2HTe2HMgC2Sn2C2HTe2HMgC2Sn2C2HTe2HMgC2Sn2C2HTe2HMgC2Sn2C2HTe2HMgC2Sn2C2HTe2HMgC2Sn2C2HTe2HMgC2Sn2C2HTe2HMgC2Sn2C2HTe2HMgC2Sn2C2HTe2HMgC2Sn2C2HTe2HMgC2Sn2C2HTe2HMgC2Sn2C2HTe2HMg
_chemical_formula_sum              "N32 C232 H144 Sn96 Te96 Mg48"
_cell_length_a       30.1121
_cell_length_b       42.2755
_cell_length_c       10.6526
_cell_angle_alpha    90.7073
_cell_angle_beta     102.434
_cell_angle_gamma    89.9932

_symmetry_space_group_name_H-M    'P1'
_space_group_IT_number       1

loop_
  _space_group_symop_operation_xyz
  'x, y, z'

loop_
  _atom_site_type_symbol
  _atom_site_label
  _atom_site_symmetry_multiplicity
  _atom_site_fract_x
  _atom_site_fract_y
  _atom_site_fract_z
  _atom_site_occupancy
  N   N1        1.0  0.35458  0.10393  0.22443  1.0000
  N   N2        1.0  0.64434  0.10568  0.26682  1.0000
  N   N3        1.0  0.85810  0.60716  0.23594  1.0000
  N   N4        1.0  0.15051  0.60119  0.25558  1.0000
  N   N5        1.0  0.65052  0.89834  0.27729  1.0000
  N   N6        1.0  0.35623  0.89491  0.23156  1.0000
  N   N7        1.0  0.14584  0.39536  0.27441  1.0000
  N   N8        1.0  0.85367  0.39784  0.23139  1.0000
  C   C1        1.0  0.35077  0.12899  0.15432  1.0000
  C   C2        1.0  0.64850  0.13046  0.34066  1.0000
  C   C3        1.0  0.84726  0.62900  0.15089  1.0000
  C   C4        1.0  0.15344  0.62581  0.33021  1.0000
  C   C5        1.0  0.66039  0.87586  0.36004  1.0000
  C   C6        1.0  0.34590  0.87239  0.14681  1.0000
  C   C7        1.0  0.15412  0.37236  0.35513  1.0000
  C   C8        1.0  0.84988  0.37329  0.15600  1.0000
  C   C9        1.0  0.25934  0.26432  0.25255  1.0000
  C   C10       1.0  0.74107  0.26624  0.24630  1.0000
  C   C11       1.0  0.76192  0.76670  0.25196  1.0000
  C   C12       1.0  0.24190  0.76423  0.25138  1.0000
  C   C13       1.0  0.74166  0.73759  0.24271  1.0000
  C   C14       1.0  0.26144  0.73483  0.26249  1.0000
  C   C15       1.0  0.23974  0.23489  0.24325  1.0000
  C   C16       1.0  0.76011  0.23661  0.25939  1.0000
  N   N9        1.0  0.05313  0.78167  0.25845  1.0000
  N   N10       1.0  0.94716  0.77619  0.19795  1.0000
  N   N11       1.0  0.55407  0.28051  0.27957  1.0000
  N   N12       1.0  0.44552  0.27764  0.21172  1.0000
  N   N13       1.0  0.94670  0.22012  0.22752  1.0000
  N   N14       1.0  0.05443  0.21844  0.28839  1.0000
  N   N15       1.0  0.44815  0.71894  0.22817  1.0000
  N   N16       1.0  0.55478  0.72451  0.27618  1.0000
  H   H1        1.0  0.37254  0.13362  0.08576  1.0000
  H   H2        1.0  0.62707  0.13428  0.41119  1.0000
  H   H3        1.0  0.85975  0.62912  0.06106  1.0000
  H   H4        1.0  0.13040  0.62930  0.39663  1.0000
  H   H5        1.0  0.64647  0.87516  0.44749  1.0000
  H   H6        1.0  0.35921  0.87097  0.05839  1.0000
  H   H7        1.0  0.13880  0.37120  0.44000  1.0000
  H   H8        1.0  0.87144  0.36981  0.08565  1.0000
  H   H9        1.0  0.45466  0.69798  0.18784  1.0000
  H   H10       1.0  0.54655  0.70256  0.30190  1.0000
  H   H11       1.0  0.95322  0.19970  0.18363  1.0000
  H   H12       1.0  0.04815  0.19671  0.32080  1.0000
  H   H13       1.0  0.54604  0.30144  0.31702  1.0000
  H   H14       1.0  0.45302  0.29827  0.17278  1.0000
  H   H15       1.0  0.04558  0.80348  0.28941  1.0000
  H   H16       1.0  0.95429  0.79619  0.15403  1.0000
  H   H17       1.0  0.47078  0.72310  0.31255  1.0000
  H   H18       1.0  0.53108  0.73275  0.20087  1.0000
  H   H19       1.0  0.96984  0.22426  0.31087  1.0000
  H   H20       1.0  0.03117  0.22384  0.20712  1.0000
  H   H21       1.0  0.53146  0.27481  0.19677  1.0000
  H   H22       1.0  0.46921  0.27203  0.29165  1.0000
  H   H23       1.0  0.03212  0.77591  0.17290  1.0000
  H   H24       1.0  0.97202  0.77083  0.27561  1.0000
  C   C17       1.0  0.00063  0.48473  0.25447  1.0000
  C   C18       1.0  0.50174  0.98383  0.26238  1.0000
  C   C19       1.0  0.00146  0.51717  0.24719  1.0000
  C   C20       1.0  0.50148  0.01616  0.25781  1.0000
  N   N17       1.0  0.35201  0.10469  0.72367  1.0000
  N   N18       1.0  0.64511  0.10358  0.76976  1.0000
  N   N19       1.0  0.84838  0.60074  0.74389  1.0000
  N   N20       1.0  0.14283  0.60422  0.76653  1.0000
  N   N21       1.0  0.64594  0.89701  0.77222  1.0000
  N   N22       1.0  0.35310  0.89604  0.72710  1.0000
  N   N23       1.0  0.14567  0.39877  0.76176  1.0000
  N   N24       1.0  0.85051  0.39568  0.72768  1.0000
  C   C21       1.0  0.34600  0.12893  0.64878  1.0000
  C   C22       1.0  0.65420  0.12709  0.85020  1.0000
  C   C23       1.0  0.84812  0.62572  0.67489  1.0000
  C   C24       1.0  0.15188  0.62749  0.84811  1.0000
  C   C25       1.0  0.64997  0.87270  0.84610  1.0000
  C   C26       1.0  0.35140  0.86985  0.66203  1.0000
  C   C27       1.0  0.14964  0.37495  0.83846  1.0000
  C   C28       1.0  0.84107  0.37261  0.64527  1.0000
  C   C29       1.0  0.25927  0.26653  0.76517  1.0000
  C   C30       1.0  0.73851  0.26401  0.74454  1.0000
  C   C31       1.0  0.76014  0.76543  0.76210  1.0000
  C   C32       1.0  0.23945  0.76426  0.74041  1.0000
  C   C33       1.0  0.74102  0.73565  0.74463  1.0000
  C   C34       1.0  0.25804  0.73463  0.75063  1.0000
  C   C35       1.0  0.24030  0.23678  0.75389  1.0000
  C   C36       1.0  0.75853  0.23485  0.75189  1.0000
  N   N25       1.0  0.05490  0.78430  0.78625  1.0000
  N   N26       1.0  0.94526  0.77742  0.70923  1.0000
  N   N27       1.0  0.55274  0.28416  0.78133  1.0000
  N   N28       1.0  0.44327  0.27763  0.70109  1.0000
  N   N29       1.0  0.94424  0.22210  0.70467  1.0000
  N   N30       1.0  0.05330  0.21441  0.76978  1.0000
  N   N31       1.0  0.44416  0.71564  0.72053  1.0000
  N   N32       1.0  0.55339  0.71875  0.76677  1.0000
  H   H25       1.0  0.36398  0.13213  0.57014  1.0000
  H   H26       1.0  0.63943  0.12907  0.93597  1.0000
  H   H27       1.0  0.87290  0.62893  0.61372  1.0000
  H   H28       1.0  0.13680  0.62910  0.93339  1.0000
  H   H29       1.0  0.62772  0.86908  0.91425  1.0000
  H   H30       1.0  0.37545  0.86431  0.60045  1.0000
  H   H31       1.0  0.12762  0.37213  0.90780  1.0000
  H   H32       1.0  0.85588  0.37084  0.55955  1.0000
  H   H33       1.0  0.45144  0.69446  0.68364  1.0000
  H   H34       1.0  0.54714  0.69792  0.80664  1.0000
  H   H35       1.0  0.95115  0.20149  0.66272  1.0000
  H   H36       1.0  0.04768  0.19314  0.80726  1.0000
  H   H37       1.0  0.54866  0.30104  0.84679  1.0000
  H   H38       1.0  0.44499  0.27704  0.60673  1.0000
  H   H39       1.0  0.05116  0.80139  0.85124  1.0000
  H   H40       1.0  0.94760  0.77876  0.61558  1.0000
  H   H41       1.0  0.46736  0.72162  0.80170  1.0000
  H   H42       1.0  0.53081  0.72225  0.68220  1.0000
  H   H43       1.0  0.96867  0.22753  0.78398  1.0000
  H   H44       1.0  0.03192  0.21749  0.68289  1.0000
  H   H45       1.0  0.53106  0.28852  0.69608  1.0000
  H   H46       1.0  0.46535  0.26182  0.75210  1.0000
  H   H47       1.0  0.03292  0.78855  0.70144  1.0000
  H   H48       1.0  0.96700  0.76091  0.75653  1.0000
  C   C37       1.0  0.99711  0.48374  0.74805  1.0000
  C   C38       1.0  0.49972  0.98420  0.75828  1.0000
  C   C39       1.0  0.99670  0.51620  0.75546  1.0000
  C   C40       1.0  0.49882  0.01656  0.76033  1.0000
  C   C41       1.0  0.14364  0.24467  0.15271  1.0000
  C   C42       1.0  0.18348  0.23578  0.23855  1.0000
  C  Sn1       1.0  0.18122  0.21818  0.34716  1.0000
  C  Sn2       1.0  0.13821  0.20935  0.36998  1.0000
  C   C43       1.0  0.09855  0.21834  0.28347  1.0000
  C   C44       1.0  0.10121  0.23596  0.17512  1.0000
  H   H49       1.0  0.14569  0.25828  0.06883  1.0000
  O  Te1       1.0  0.22136  0.20950  0.43196  1.0000
  O  Te2       1.0  0.13497  0.19175  0.47774  1.0000
  H   H50       1.0  0.07036  0.24282  0.10863  1.0000
  Mg  Mg1       1.0  0.19932  0.18557  0.56530  1.0000
  C   C45       1.0  0.85596  0.24439  0.36184  1.0000
  C   C46       1.0  0.81664  0.23667  0.27038  1.0000
  C  Sn3       1.0  0.81975  0.22045  0.15755  1.0000
  C  Sn4       1.0  0.86308  0.21181  0.13617  1.0000
  C   C47       1.0  0.90221  0.21961  0.22830  1.0000
  C   C48       1.0  0.89871  0.23586  0.34085  1.0000
  H   H51       1.0  0.85325  0.25694  0.44895  1.0000
  O  Te3       1.0  0.78012  0.21294  0.06715  1.0000
  O  Te4       1.0  0.86716  0.19557  0.02427  1.0000
  H   H52       1.0  0.92916  0.24181  0.41168  1.0000
  Mg  Mg2       1.0  0.87944  0.19375  0.92969  1.0000
  C   C49       1.0  0.64669  0.75249  0.15606  1.0000
  C   C50       1.0  0.68527  0.73931  0.23460  1.0000
  C  Sn5       1.0  0.68077  0.71768  0.32923  1.0000
  C  Sn6       1.0  0.63679  0.70913  0.34527  1.0000
  C   C51       1.0  0.59840  0.72243  0.26615  1.0000
  C   C52       1.0  0.60329  0.74406  0.17179  1.0000
  H   H53       1.0  0.65047  0.76921  0.08300  1.0000
  O  Te5       1.0  0.71967  0.70474  0.40690  1.0000
  O  Te6       1.0  0.63131  0.68756  0.43907  1.0000
  H   H54       1.0  0.57341  0.75424  0.11094  1.0000
  Mg  Mg3       1.0  0.69466  0.67637  0.52133  1.0000
  C   C53       1.0  0.33033  0.71236  0.12685  1.0000
  C   C54       1.0  0.31185  0.72525  0.22568  1.0000
  C  Sn7       1.0  0.34026  0.73831  0.33519  1.0000
  C  Sn8       1.0  0.38804  0.73844  0.34566  1.0000
  C   C55       1.0  0.40619  0.72551  0.24622  1.0000
  C   C56       1.0  0.37745  0.71249  0.13708  1.0000
  H   H55       1.0  0.30809  0.70230  0.04237  1.0000
  O  Te7       1.0  0.32124  0.75108  0.43306  1.0000
  O  Te8       1.0  0.41721  0.75135  0.45403  1.0000
  H   H56       1.0  0.39176  0.70253  0.06054  1.0000
  Mg  Mg4       1.0  0.37505  0.76594  0.56182  1.0000
  C   C57       1.0  0.85517  0.79125  0.11373  1.0000
  C   C58       1.0  0.89461  0.78120  0.19843  1.0000
  C  Sn9       1.0  0.89158  0.76350  0.30618  1.0000
  C  Sn10      1.0  0.84822  0.75574  0.32927  1.0000
  C   C59       1.0  0.80897  0.76589  0.24391  1.0000
  C   C60       1.0  0.81239  0.78360  0.13641  1.0000
  H   H57       1.0  0.85781  0.80494  0.03052  1.0000
  O  Te9       1.0  0.93132  0.75365  0.38986  1.0000
  O  Te10      1.0  0.84421  0.73807  0.43619  1.0000
  H   H58       1.0  0.78185  0.79137  0.07080  1.0000
  Mg  Mg5       1.0  0.90826  0.73009  0.52234  1.0000
  C   C61       1.0  0.17035  0.79235  0.36496  1.0000
  C   C62       1.0  0.19072  0.77308  0.28597  1.0000
  C  Sn11      1.0  0.16395  0.75658  0.18238  1.0000
  C  Sn12      1.0  0.11592  0.75948  0.15763  1.0000
  C   C63       1.0  0.09587  0.77884  0.23716  1.0000
  C   C64       1.0  0.12298  0.79523  0.34059  1.0000
  H   H59       1.0  0.19132  0.80505  0.44494  1.0000
  O  Te11      1.0  0.18485  0.73742  0.10445  1.0000
  O  Te12      1.0  0.08836  0.74326  0.05472  1.0000
  H   H60       1.0  0.10720  0.81017  0.40168  1.0000
  Mg  Mg6       1.0  0.20895  0.72315  0.97591  1.0000
  C   C65       1.0  0.37955  0.25431  0.33981  1.0000
  C   C66       1.0  0.39820  0.26889  0.24588  1.0000
  C  Sn13      1.0  0.37035  0.28554  0.14668  1.0000
  C  Sn14      1.0  0.32297  0.28760  0.14169  1.0000
  C   C67       1.0  0.30466  0.27296  0.23616  1.0000
  C   C68       1.0  0.33283  0.25635  0.33498  1.0000
  H   H61       1.0  0.40135  0.24148  0.41631  1.0000
  O  Te13      1.0  0.38953  0.29995  0.05360  1.0000
  O  Te14      1.0  0.29436  0.30410  0.04363  1.0000
  H   H62       1.0  0.31839  0.24509  0.40773  1.0000
  Mg  Mg7       1.0  0.41271  0.32285  0.93899  1.0000
  C   C69       1.0  0.62071  0.25776  0.15166  1.0000
  C   C70       1.0  0.60181  0.27203  0.24698  1.0000
  C  Sn15      1.0  0.62961  0.28792  0.35049  1.0000
  C  Sn16      1.0  0.67720  0.28951  0.35845  1.0000
  C   C71       1.0  0.69578  0.27517  0.26255  1.0000
  C   C72       1.0  0.66765  0.25933  0.15940  1.0000
  H   H63       1.0  0.59895  0.24552  0.07181  1.0000
  O  Te15      1.0  0.61017  0.30204  0.44492  1.0000
  O  Te16      1.0  0.70577  0.30524  0.46084  1.0000
  H   H64       1.0  0.68229  0.24830  0.08557  1.0000
  Mg  Mg8       1.0  0.66321  0.32075  0.56575  1.0000
  C   C73       1.0  0.44143  0.06272  0.11456  1.0000
  C   C74       1.0  0.45931  0.04271  0.21637  1.0000
  C  Sn17      1.0  0.43864  0.04059  0.32150  1.0000
  C  Sn18      1.0  0.39935  0.05886  0.32446  1.0000
  C   C75       1.0  0.38171  0.07880  0.22209  1.0000
  C   C76       1.0  0.40267  0.08074  0.11738  1.0000
  H   H65       1.0  0.45763  0.06421  0.03351  1.0000
  O  Te17      1.0  0.45695  0.02048  0.42243  1.0000
  O  Te18      1.0  0.37801  0.05719  0.42833  1.0000
  H   H66       1.0  0.38880  0.09623  0.03853  1.0000
  Mg  Mg9       1.0  0.41575  0.02636  0.54283  1.0000
  C   C77       1.0  0.58256  0.06194  0.13833  1.0000
  C   C78       1.0  0.60671  0.07939  0.24330  1.0000
  C  Sn19      1.0  0.60001  0.07378  0.36687  1.0000
  C  Sn20      1.0  0.56853  0.05025  0.38541  1.0000
  C   C79       1.0  0.54456  0.03290  0.27978  1.0000
  C   C80       1.0  0.55152  0.03872  0.15654  1.0000
  H   H67       1.0  0.58797  0.06642  0.04298  1.0000
  O  Te19      1.0  0.62441  0.09144  0.47068  1.0000
  O  Te20      1.0  0.56118  0.04415  0.50788  1.0000
  H   H68       1.0  0.53284  0.02519  0.07530  1.0000
  Mg  Mg10      1.0  0.60256  0.07443  0.61903  1.0000
  C   C81       1.0  0.89196  0.54622  0.28443  1.0000
  C   C82       1.0  0.89068  0.57781  0.24667  1.0000
  C  Sn21      1.0  0.92547  0.59020  0.19372  1.0000
  C  Sn22      1.0  0.96218  0.57054  0.17839  1.0000
  C   C83       1.0  0.96313  0.53897  0.21639  1.0000
  C   C84       1.0  0.92815  0.52682  0.26930  1.0000
  H   H69       1.0  0.86488  0.53681  0.32531  1.0000
  O  Te21      1.0  0.92367  0.62181  0.15654  1.0000
  O  Te22      1.0  0.99739  0.58231  0.12570  1.0000
  H   H70       1.0  0.92913  0.50235  0.29845  1.0000
  Mg  Mg11      1.0  0.97969  0.62694  0.08962  1.0000
  C   C85       1.0  0.08689  0.55832  0.12519  1.0000
  C   C86       1.0  0.11236  0.57511  0.23012  1.0000
  C  Sn23      1.0  0.10484  0.57045  0.35349  1.0000
  C  Sn24      1.0  0.07118  0.54855  0.37186  1.0000
  C   C87       1.0  0.04590  0.53185  0.26627  1.0000
  C   C88       1.0  0.05370  0.53670  0.14323  1.0000
  H   H71       1.0  0.09294  0.56207  0.02999  1.0000
  O  Te23      1.0  0.13058  0.58743  0.45726  1.0000
  O  Te24      1.0  0.06297  0.54342  0.49413  1.0000
  H   H72       1.0  0.03399  0.52368  0.06202  1.0000
  Mg  Mg12      1.0  0.10682  0.57223  0.60531  1.0000
  C   C89       1.0  0.56590  0.91338  0.33872  1.0000
  C   C90       1.0  0.60576  0.91648  0.29274  1.0000
  C  Sn25      1.0  0.61646  0.94525  0.24311  1.0000
  C  Sn26      1.0  0.58663  0.97136  0.23959  1.0000
  C   C91       1.0  0.54685  0.96802  0.28590  1.0000
  C   C92       1.0  0.53647  0.93912  0.33533  1.0000
  H   H73       1.0  0.55787  0.89102  0.37702  1.0000
  O  Te25      1.0  0.65642  0.94793  0.19753  1.0000
  O  Te26      1.0  0.59650  0.00039  0.19054  1.0000
  H   H74       1.0  0.50561  0.93674  0.37099  1.0000
  Mg  Mg13      1.0  0.65503  0.99234  0.13974  1.0000
  C   C93       1.0  0.40195  0.94834  0.33908  1.0000
  C   C94       1.0  0.38691  0.92604  0.24121  1.0000
  C  Sn27      1.0  0.41067  0.92162  0.14328  1.0000
  C  Sn28      1.0  0.45022  0.93988  0.14362  1.0000
  C   C95       1.0  0.46501  0.96211  0.24200  1.0000
  C   C96       1.0  0.44096  0.96635  0.33950  1.0000
  H   H75       1.0  0.38336  0.95161  0.41456  1.0000
  O  Te27      1.0  0.39517  0.89925  0.04621  1.0000
  O  Te28      1.0  0.47463  0.93594  0.04694  1.0000
  H   H76       1.0  0.45263  0.98360  0.41531  1.0000
  Mg  Mg14      1.0  0.51617  0.90561  0.93546  1.0000
  C   C97       1.0  0.09530  0.46938  0.23888  1.0000
  C   C98       1.0  0.05081  0.46545  0.25509  1.0000
  C  Sn29      1.0  0.03642  0.43620  0.29147  1.0000
  C  Sn30      1.0  0.06723  0.41043  0.31198  1.0000
  C   C99       1.0  0.11168  0.41461  0.29561  1.0000
  C   C100      1.0  0.12572  0.44398  0.25914  1.0000
  H   H77       1.0  0.10617  0.49211  0.21073  1.0000
  O  Te29      1.0  0.99184  0.43269  0.30719  1.0000
  O  Te30      1.0  0.05375  0.38094  0.34844  1.0000
  H   H78       1.0  0.16018  0.44701  0.24668  1.0000
  Mg  Mg15      1.0  0.98950  0.38789  0.35771  1.0000
  C   C101      1.0  0.92888  0.44633  0.10574  1.0000
  C   C102      1.0  0.95035  0.46484  0.21095  1.0000
  C  Sn31      1.0  0.93956  0.46094  0.33098  1.0000
  C  Sn32      1.0  0.90666  0.43805  0.34566  1.0000
  C   C103      1.0  0.88539  0.41963  0.23983  1.0000
  C   C104      1.0  0.89644  0.42374  0.12015  1.0000
  H   H79       1.0  0.93744  0.44950  0.01315  1.0000
  O  Te31      1.0  0.96132  0.47964  0.43507  1.0000
  O  Te32      1.0  0.89524  0.43365  0.46455  1.0000
  H   H80       1.0  0.87983  0.40939  0.03873  1.0000
  Mg  Mg16      1.0  0.93420  0.46484  0.57767  1.0000
  C   C105      1.0  0.29906  0.20395  0.09956  1.0000
  C   C106      1.0  0.26780  0.20611  0.17906  1.0000
  C  Sn33      1.0  0.26302  0.18122  0.26027  1.0000
  C  Sn34      1.0  0.29008  0.15370  0.26173  1.0000
  C   C107      1.0  0.32128  0.15178  0.18189  1.0000
  C   C108      1.0  0.32578  0.17682  0.10097  1.0000
  H   H81       1.0  0.30256  0.22332  0.03699  1.0000
  O  Te33      1.0  0.23161  0.18376  0.33905  1.0000
  O  Te34      1.0  0.28601  0.12849  0.34200  1.0000
  H   H82       1.0  0.35001  0.17515  0.03949  1.0000
  Mg  Mg17      1.0  0.23846  0.14312  0.43170  1.0000
  C   C109      1.0  0.73537  0.17014  0.22448  1.0000
  C   C110      1.0  0.73626  0.20105  0.27298  1.0000
  C  Sn35      1.0  0.70925  0.20940  0.35958  1.0000
  C  Sn36      1.0  0.68087  0.18632  0.39818  1.0000
  C   C111      1.0  0.68025  0.15545  0.34918  1.0000
  C   C112      1.0  0.70740  0.14736  0.26254  1.0000
  H   H83       1.0  0.75640  0.16387  0.15750  1.0000
  O  Te35      1.0  0.71054  0.24040  0.40707  1.0000
  O  Te36      1.0  0.65355  0.19402  0.48465  1.0000
  H   H84       1.0  0.70673  0.12341  0.22507  1.0000
  Mg  Mg18      1.0  0.66710  0.23940  0.52264  1.0000
  C   C113      1.0  0.78031  0.67602  0.31524  1.0000
  C   C114      1.0  0.77064  0.70361  0.24365  1.0000
  C  Sn37      1.0  0.78333  0.70630  0.12556  1.0000
  C  Sn38      1.0  0.80610  0.68086  0.07850  1.0000
  C   C115      1.0  0.81559  0.65335  0.15080  1.0000
  C   C116      1.0  0.80275  0.65091  0.26887  1.0000
  H   H85       1.0  0.77036  0.67412  0.40656  1.0000
  O  Te37      1.0  0.77342  0.73403  0.05529  1.0000
  O  Te38      1.0  0.89532  0.68602  0.96075  1.0000
  H   H86       1.0  0.81022  0.62954  0.32424  1.0000
  Mg  Mg19      1.0  0.87427  0.72866  0.90022  1.0000
  C   C117      1.0  0.19698  0.70333  0.38718  1.0000
  C   C118      1.0  0.23166  0.70610  0.31938  1.0000
  C  Sn39      1.0  0.24258  0.68052  0.24749  1.0000
  C  Sn40      1.0  0.21825  0.65166  0.24354  1.0000
  C   C119      1.0  0.18359  0.64913  0.31163  1.0000
  C   C120      1.0  0.17296  0.67487  0.38330  1.0000
  H   H87       1.0  0.18874  0.72325  0.44258  1.0000
  O  Te39      1.0  0.27734  0.68370  0.18036  1.0000
  O  Te40      1.0  0.22844  0.62572  0.17241  1.0000
  H   H88       1.0  0.14608  0.67272  0.43571  1.0000
  Mg  Mg20      1.0  0.27867  0.64165  0.09713  1.0000
  C   C121      1.0  0.71065  0.80014  0.41182  1.0000
  C   C122      1.0  0.73068  0.79450  0.30692  1.0000
  C  Sn41      1.0  0.73215  0.81838  0.21839  1.0000
  C  Sn42      1.0  0.71320  0.84845  0.23547  1.0000
  C   C123      1.0  0.69327  0.85386  0.34079  1.0000
  C   C124      1.0  0.69197  0.82980  0.42877  1.0000
  H   H89       1.0  0.70966  0.78153  0.47994  1.0000
  O  Te41      1.0  0.75227  0.81233  0.11410  1.0000
  O  Te42      1.0  0.71423  0.87274  0.14847  1.0000
  H   H90       1.0  0.67649  0.83418  0.51002  1.0000
  Mg  Mg21      1.0  0.74537  0.85300  0.02158  1.0000
  C   C125      1.0  0.29396  0.79672  0.09208  1.0000
  C   C126      1.0  0.27400  0.79151  0.19694  1.0000
  C  Sn43      1.0  0.27340  0.81557  0.28764  1.0000
  C  Sn44      1.0  0.29317  0.84538  0.27281  1.0000
  C   C127      1.0  0.31303  0.85037  0.16752  1.0000
  C   C128      1.0  0.31345  0.82612  0.07735  1.0000
  H   H91       1.0  0.29427  0.77797  0.02226  1.0000
  O  Te43      1.0  0.25333  0.80996  0.39186  1.0000
  O  Te44      1.0  0.29302  0.86985  0.36201  1.0000
  H   H92       1.0  0.40505  0.83328  0.99612  1.0000
  Mg  Mg22      1.0  0.26160  0.85072  0.48786  1.0000
  C   C129      1.0  0.22649  0.32821  0.19869  1.0000
  C   C130      1.0  0.23748  0.30063  0.26952  1.0000
  C  Sn45      1.0  0.21949  0.29517  0.37776  1.0000
  C  Sn46      1.0  0.18993  0.31780  0.41553  1.0000
  C   C131      1.0  0.17912  0.34531  0.34398  1.0000
  C   C132      1.0  0.19733  0.35053  0.23585  1.0000
  H   H93       1.0  0.24056  0.33225  0.11499  1.0000
  O  Te45      1.0  0.23084  0.26749  0.44746  1.0000
  O  Te46      1.0  0.17145  0.31294  0.52328  1.0000
  H   H94       1.0  0.18879  0.37188  0.18099  1.0000
  Mg  Mg23      1.0  0.19706  0.27156  0.58715  1.0000
  C   C133      1.0  0.78108  0.34635  0.27166  1.0000
  C   C134      1.0  0.81275  0.34820  0.19347  1.0000
  C  Sn47      1.0  0.81900  0.32256  0.11517  1.0000
  C  Sn48      1.0  0.79302  0.29457  0.11534  1.0000
  C   C135      1.0  0.76140  0.29296  0.19383  1.0000
  C   C136      1.0  0.75542  0.31875  0.27184  1.0000
  H   H95       1.0  0.77643  0.36631  0.33197  1.0000
  O  Te47      1.0  0.85080  0.32480  0.03768  1.0000
  O  Te48      1.0  0.79858  0.26859  0.03798  1.0000
  H   H96       1.0  0.73088  0.31732  0.33231  1.0000
  Mg  Mg24      1.0  0.92229  0.28619  0.94906  1.0000
  C   C137      1.0  0.11975  0.24073  0.65096  1.0000
  C   C138      1.0  0.10108  0.22308  0.73707  1.0000
  C  Sn49      1.0  0.12921  0.21021  0.84599  1.0000
  C  Sn50      1.0  0.17690  0.21515  0.86888  1.0000
  C   C139      1.0  0.19524  0.23285  0.78220  1.0000
  C   C140      1.0  0.16678  0.24562  0.67350  1.0000
  H   H97       1.0  0.09773  0.25062  0.56689  1.0000
  O  Te49      1.0  0.11000  0.19263  0.93101  1.0000
  O  Te50      1.0  0.20580  0.20256  0.97701  1.0000
  H   H98       1.0  0.18124  0.25929  0.60689  1.0000
  Mg  Mg25      1.0  0.08729  0.17719  0.06475  1.0000
  C   C141      1.0  0.82712  0.21092  0.61782  1.0000
  C   C142      1.0  0.80882  0.22471  0.71529  1.0000
  C  Sn51      1.0  0.83719  0.23973  0.82011  1.0000
  C  Sn52      1.0  0.88476  0.24095  0.82719  1.0000
  C   C143      1.0  0.90273  0.22710  0.72914  1.0000
  C   C144      1.0  0.87403  0.21212  0.62470  1.0000
  H   H99       1.0  0.80492  0.19934  0.53698  1.0000
  O  Te51      1.0  0.81835  0.25338  0.91668  1.0000
  O  Te52      1.0  0.91390  0.25582  0.93084  1.0000
  H   H100      1.0  0.88821  0.20147  0.54921  1.0000
  Mg  Mg26      1.0  0.79585  0.26784  0.03859  1.0000
  C   C145      1.0  0.64524  0.74124  0.63360  1.0000
  C   C146      1.0  0.68412  0.73522  0.72842  1.0000
  C  Sn53      1.0  0.68037  0.72082  0.84304  1.0000
  C  Sn54      1.0  0.63683  0.71231  0.86281  1.0000
  C   C147      1.0  0.59814  0.71842  0.76731  1.0000
  C   C148      1.0  0.60229  0.73285  0.65300  1.0000
  H   H101      1.0  0.64845  0.75239  0.54512  1.0000
  O  Te53      1.0  0.71956  0.71498  0.93679  1.0000
  O  Te54      1.0  0.63210  0.69788  0.97644  1.0000
  H   H102      1.0  0.57218  0.73749  0.57957  1.0000
  Mg  Mg27      1.0  0.61942  0.69171  0.07555  1.0000
  C   C149      1.0  0.35105  0.70411  0.62260  1.0000
  C   C150      1.0  0.39048  0.71614  0.70294  1.0000
  C  Sn55      1.0  0.38768  0.73422  0.81162  1.0000
  C  Sn56      1.0  0.34456  0.74032  0.84017  1.0000
  C   C151      1.0  0.30532  0.72816  0.75925  1.0000
  C   C152      1.0  0.30851  0.71010  0.65072  1.0000
  H   H103      1.0  0.35352  0.69012  0.53867  1.0000
  O  Te55      1.0  0.42742  0.74608  0.89084  1.0000
  O  Te56      1.0  0.34079  0.75831  0.94820  1.0000
  H   H104      1.0  0.27797  0.70077  0.58858  1.0000
  Mg  Mg28      1.0  0.32855  0.76621  0.02687  1.0000
  C   C153      1.0  0.88110  0.75789  0.85134  1.0000
  C   C154      1.0  0.89850  0.76950  0.74942  1.0000
  C  Sn57      1.0  0.86962  0.78356  0.64472  1.0000
  C  Sn58      1.0  0.82245  0.78600  0.64231  1.0000
  C   C155      1.0  0.80537  0.77433  0.74478  1.0000
  C   C156      1.0  0.83458  0.76030  0.84906  1.0000
  H   H105      1.0  0.90369  0.74705  0.93205  1.0000
  O  Te57      1.0  0.88757  0.79503  0.54368  1.0000
  O  Te58      1.0  0.79282  0.79995  0.53888  1.0000
  H   H106      1.0  0.82109  0.75133  0.92799  1.0000
  Mg  Mg29      1.0  0.83350  0.81206  0.42401  1.0000
  C   C157      1.0  0.14271  0.75909  0.64171  1.0000
  C   C158      1.0  0.18306  0.76840  0.72556  1.0000
  C  Sn59      1.0  0.18186  0.78284  0.84347  1.0000
  C  Sn60      1.0  0.13943  0.78801  0.87781  1.0000
  C   C159      1.0  0.09926  0.77859  0.79329  1.0000
  C   C160      1.0  0.10085  0.76417  0.67553  1.0000
  H   H107      1.0  0.14394  0.74792  0.55062  1.0000
  O  Te59      1.0  0.22249  0.79200  0.92609  1.0000
  O  Te60      1.0  0.13725  0.80238  0.99508  1.0000
  H   H108      1.0  0.06961  0.75694  0.61066  1.0000
  Mg  Mg30      1.0  0.12574  0.80759  0.07519  1.0000
  C   C161      1.0  0.32592  0.28875  0.62315  1.0000
  C   C162      1.0  0.30855  0.27345  0.71783  1.0000
  C  Sn61      1.0  0.33798  0.25999  0.82299  1.0000
  C  Sn62      1.0  0.38567  0.26194  0.83331  1.0000
  C   C163      1.0  0.40272  0.27732  0.73812  1.0000
  C   C164      1.0  0.37296  0.29069  0.63328  1.0000
  H   H109      1.0  0.30290  0.29911  0.54206  1.0000
  O  Te61      1.0  0.32005  0.24478  0.91670  1.0000
  O  Te62      1.0  0.41586  0.24871  0.93743  1.0000
  H   H110      1.0  0.38642  0.30256  0.56003  1.0000
  Mg  Mg31      1.0  0.29881  0.22732  0.04048  1.0000
  C   C165      1.0  0.64641  0.28855  0.89076  1.0000
  C   C166      1.0  0.60679  0.28399  0.79623  1.0000
  C  Sn63      1.0  0.60886  0.26959  0.67886  1.0000
  C  Sn64      1.0  0.65143  0.25960  0.65602  1.0000
  C   C167      1.0  0.69088  0.26425  0.75125  1.0000
  C   C168      1.0  0.68842  0.27869  0.86833  1.0000
  H   H111      1.0  0.64452  0.29971  0.98138  1.0000
  O  Te63      1.0  0.56894  0.26523  0.58544  1.0000
  O  Te64      1.0  0.65447  0.24514  0.53960  1.0000
  H   H112      1.0  0.71910  0.28220  0.94154  1.0000
  Mg  Mg32      1.0  0.59056  0.24439  0.44218  1.0000
  C   C169      1.0  0.41423  0.03832  0.83018  1.0000
  C   C170      1.0  0.44708  0.03400  0.75678  1.0000
  C  Sn65      1.0  0.44954  0.05476  0.65746  1.0000
  C  Sn66      1.0  0.41848  0.08031  0.63138  1.0000
  C   C171      1.0  0.38576  0.08444  0.70543  1.0000
  C   C172      1.0  0.38360  0.06352  0.80456  1.0000
  H   H113      1.0  0.41257  0.02214  0.90693  1.0000
  O  Te65      1.0  0.48256  0.05009  0.58503  1.0000
  O  Te66      1.0  0.42019  0.10142  0.53272  1.0000
  H   H114      1.0  0.35818  0.06688  0.86143  1.0000
  Mg  Mg33      1.0  0.47128  0.08518  0.46074  1.0000
  C   C173      1.0  0.54401  0.07545  0.84132  1.0000
  C   C174      1.0  0.53838  0.04516  0.78606  1.0000
  C  Sn67      1.0  0.57219  0.03200  0.73024  1.0000
  C  Sn68      1.0  0.61234  0.04953  0.72992  1.0000
  C   C175      1.0  0.61765  0.07980  0.78552  1.0000
  C   C176      1.0  0.58360  0.09275  0.84108  1.0000
  H   H115      1.0  0.51768  0.08546  0.88436  1.0000
  O  Te67      1.0  0.56585  0.00171  0.67542  1.0000
  O  Te68      1.0  0.64668  0.03694  0.67483  1.0000
  H   H116      1.0  0.58798  0.11619  0.88393  1.0000
  Mg  Mg34      1.0  0.62232  0.99474  0.61206  1.0000
  C   C177      1.0  0.93142  0.54765  0.87724  1.0000
  C   C178      1.0  0.94935  0.53496  0.77704  1.0000
  C  Sn69      1.0  0.93232  0.54435  0.65053  1.0000
  C  Sn70      1.0  0.89668  0.56686  0.62417  1.0000
  C   C179      1.0  0.87899  0.57943  0.72510  1.0000
  C   C180      1.0  0.89628  0.56987  0.85133  1.0000
  H   H117      1.0  0.94480  0.54026  0.97492  1.0000
  O  Te69      1.0  0.95062  0.53143  0.55155  1.0000
  O  Te70      1.0  0.87904  0.57667  0.49862  1.0000
  H   H118      1.0  0.88240  0.57971  0.92891  1.0000
  Mg  Mg35      1.0  0.91519  0.55226  0.39633  1.0000
  C   C181      1.0  0.05519  0.59005  0.80825  1.0000
  C   C182      1.0  0.09940  0.58531  0.79081  1.0000
  C  Sn71      1.0  0.11288  0.55547  0.75536  1.0000
  C  Sn72      1.0  0.08142  0.52997  0.73707  1.0000
  C   C183      1.0  0.03726  0.53497  0.75466  1.0000
  C   C184      1.0  0.02414  0.56491  0.79017  1.0000
  H   H119      1.0  0.04503  0.61323  0.83566  1.0000
  O  Te71      1.0  0.15719  0.55114  0.73839  1.0000
  O  Te72      1.0  0.09399  0.49991  0.70159  1.0000
  H   H120      1.0  0.98989  0.56859  0.80358  1.0000
  Mg  Mg36      1.0  0.15820  0.50580  0.68994  1.0000
  C   C185      1.0  0.58001  0.93668  0.64004  1.0000
  C   C186      1.0  0.60998  0.92460  0.74740  1.0000
  C  Sn73      1.0  0.60426  0.93195  0.87116  1.0000
  C  Sn74      1.0  0.56782  0.95176  0.88743  1.0000
  C   C187      1.0  0.53801  0.96370  0.77941  1.0000
  C   C188      1.0  0.54405  0.95621  0.65600  1.0000
  H   H121      1.0  0.58467  0.93087  0.54455  1.0000
  O  Te73      1.0  0.63452  0.91969  0.97738  1.0000
  O  Te74      1.0  0.48514  0.95636  0.01004  1.0000
  H   H122      1.0  0.52083  0.96555  0.57289  1.0000
  Mg  Mg37      1.0  0.53536  0.93388  0.12492  1.0000
  C   C189      1.0  0.42275  0.95870  0.84908  1.0000
  C   C190      1.0  0.45481  0.96181  0.77266  1.0000
  C  Sn75      1.0  0.45050  0.94408  0.65909  1.0000
  C  Sn76      1.0  0.41335  0.92288  0.62156  1.0000
  C   C191      1.0  0.38145  0.91996  0.69862  1.0000
  C   C192      1.0  0.38610  0.93780  0.81210  1.0000
  H   H123      1.0  0.42634  0.97251  0.93684  1.0000
  O  Te75      1.0  0.48284  0.94747  0.58390  1.0000
  O  Te76      1.0  0.40821  0.90488  0.50850  1.0000
  H   H124      1.0  0.36125  0.93540  0.87120  1.0000
  Mg  Mg38      1.0  0.46113  0.91779  0.43826  1.0000
  C   C193      1.0  0.08148  0.43983  0.62928  1.0000
  C   C194      1.0  0.11056  0.42726  0.73723  1.0000
  C  Sn77      1.0  0.10283  0.43319  0.86007  1.0000
  C  Sn78      1.0  0.06527  0.45205  0.87478  1.0000
  C   C195      1.0  0.03636  0.46450  0.76617  1.0000
  C   C196      1.0  0.04441  0.45843  0.64370  1.0000
  H   H125      1.0  0.08769  0.43512  0.53451  1.0000
  O  Te77      1.0  0.13223  0.42046  0.96690  1.0000
  O  Te78      1.0  0.05675  0.45834  0.99643  1.0000
  H   H126      1.0  0.02187  0.46815  0.56013  1.0000
  Mg  Mg39      1.0  0.03029  0.43261  0.11268  1.0000
  C   C197      1.0  0.95278  0.42458  0.66530  1.0000
  C   C198      1.0  0.95585  0.45577  0.71141  1.0000
  C  Sn79      1.0  0.92226  0.46814  0.77016  1.0000
  C  Sn80      1.0  0.88496  0.44886  0.78287  1.0000
  C   C199      1.0  0.88221  0.41768  0.73651  1.0000
  C   C200      1.0  0.91600  0.40555  0.67785  1.0000
  H   H127      1.0  0.97893  0.41519  0.61998  1.0000
  O  Te79      1.0  0.92585  0.49935  0.81565  1.0000
  O  Te80      1.0  0.85092  0.46061  0.84123  1.0000
  H   H128      1.0  0.91363  0.38139  0.64223  1.0000
  Mg  Mg40      1.0  0.87092  0.50462  0.88796  1.0000
  C   C201      1.0  0.28307  0.15757  0.78440  1.0000
  C   C202      1.0  0.30772  0.15325  0.68837  1.0000
  C  Sn81      1.0  0.31167  0.17788  0.60516  1.0000
  C  Sn82      1.0  0.29052  0.20735  0.61861  1.0000
  C   C203      1.0  0.26596  0.21144  0.71506  1.0000
  C   C204      1.0  0.26222  0.18663  0.79777  1.0000
  H   H129      1.0  0.28020  0.13838  0.84845  1.0000
  O  Te81      1.0  0.33640  0.17316  0.50971  1.0000
  O  Te82      1.0  0.29393  0.23237  0.53679  1.0000
  H   H130      1.0  0.24316  0.18999  0.87216  1.0000
  Mg  Mg41      1.0  0.33130  0.21441  0.42158  1.0000
  C   C205      1.0  0.72878  0.16986  0.69919  1.0000
  C   C206      1.0  0.73345  0.19968  0.75872  1.0000
  C  Sn83      1.0  0.71384  0.20586  0.86398  1.0000
  C  Sn84      1.0  0.68913  0.18168  0.91031  1.0000
  C   C207      1.0  0.68467  0.15192  0.85015  1.0000
  C   C208      1.0  0.70442  0.14600  0.74486  1.0000
  H   H131      1.0  0.74408  0.16528  0.61777  1.0000
  O  Te83      1.0  0.71883  0.23578  0.92229  1.0000
  O  Te84      1.0  0.59303  0.18410  0.01538  1.0000
  H   H132      1.0  0.70082  0.12290  0.69885  1.0000
  Mg  Mg42      1.0  0.60926  0.22872  0.06250  1.0000
  C   C209      1.0  0.80994  0.70442  0.63078  1.0000
  C   C210      1.0  0.77235  0.70724  0.68746  1.0000
  C  Sn85      1.0  0.75740  0.68128  0.74718  1.0000
  C  Sn86      1.0  0.78059  0.65200  0.75009  1.0000
  C   C211      1.0  0.81819  0.64943  0.69319  1.0000
  C   C212      1.0  0.83285  0.67555  0.63365  1.0000
  H   H133      1.0  0.82131  0.72463  0.58478  1.0000
  O  Te85      1.0  0.71977  0.68451  0.80330  1.0000
  O  Te86      1.0  0.76638  0.62568  0.80917  1.0000
  H   H134      1.0  0.86198  0.67336  0.58984  1.0000
  Mg  Mg43      1.0  0.71334  0.64185  0.87227  1.0000
  C   C213      1.0  0.19216  0.68797  0.92242  1.0000
  C   C214      1.0  0.18097  0.66019  0.85002  1.0000
  C  Sn87      1.0  0.19846  0.65459  0.74050  1.0000
  C  Sn88      1.0  0.22768  0.67726  0.70302  1.0000
  C   C215      1.0  0.23869  0.70497  0.77616  1.0000
  C   C216      1.0  0.22099  0.71033  0.88556  1.0000
  H   H135      1.0  0.10232  0.68901  0.00710  1.0000
  O  Te87      1.0  0.18693  0.62672  0.66923  1.0000
  O  Te88      1.0  0.24565  0.67226  0.59401  1.0000
  H   H136      1.0  0.22968  0.73183  0.94164  1.0000
  Mg  Mg44      1.0  0.21997  0.63065  0.52823  1.0000
  C   C217      1.0  0.68092  0.80975  0.90223  1.0000
  C   C218      1.0  0.68287  0.84090  0.86131  1.0000
  C  Sn89      1.0  0.71152  0.84888  0.77937  1.0000
  C  Sn90      1.0  0.73868  0.82519  0.73777  1.0000
  C   C219      1.0  0.73646  0.79409  0.77918  1.0000
  C   C220      1.0  0.70768  0.78636  0.86120  1.0000
  H   H137      1.0  0.65864  0.80376  0.96564  1.0000
  O  Te89      1.0  0.71307  0.88012  0.73944  1.0000
  O  Te90      1.0  0.76760  0.83252  0.65583  1.0000
  H   H138      1.0  0.70616  0.76224  0.89280  1.0000
  Mg  Mg45      1.0  0.75781  0.87844  0.62779  1.0000
  C   C221      1.0  0.27814  0.84456  0.76580  1.0000
  C   C222      1.0  0.31258  0.84585  0.69654  1.0000
  C  Sn91      1.0  0.32087  0.81983  0.62282  1.0000
  C  Sn92      1.0  0.29414  0.79205  0.61852  1.0000
  C   C223      1.0  0.25975  0.79100  0.68809  1.0000
  C   C224      1.0  0.25175  0.81717  0.76158  1.0000
  H   H139      1.0  0.27193  0.86481  0.82261  1.0000
  O  Te91      1.0  0.35542  0.82152  0.55423  1.0000
  O  Te92      1.0  0.30169  0.76570  0.54558  1.0000
  H   H140      1.0  0.22507  0.81617  0.81513  1.0000
  Mg  Mg46      1.0  0.35271  0.77947  0.46878  1.0000
  C   C225      1.0  0.18067  0.31221  0.90226  1.0000
  C   C226      1.0  0.18257  0.34305  0.85794  1.0000
  C  Sn93      1.0  0.21107  0.35034  0.77471  1.0000
  C  Sn94      1.0  0.23812  0.32626  0.73526  1.0000
  C   C227      1.0  0.23595  0.29547  0.78007  1.0000
  C   C228      1.0  0.20733  0.28844  0.86336  1.0000
  H   H141      1.0  0.15851  0.30676  0.96665  1.0000
  O  Te93      1.0  0.21256  0.38128  0.73138  1.0000
  O  Te94      1.0  0.26688  0.33289  0.65210  1.0000
  H   H142      1.0  0.20584  0.26455  0.89759  1.0000
  Mg  Mg47      1.0  0.25709  0.37863  0.61924  1.0000
  C   C229      1.0  0.79281  0.29639  0.59172  1.0000
  C   C230      1.0  0.76958  0.29163  0.69024  1.0000
  C  Sn95      1.0  0.76514  0.31635  0.77488  1.0000
  C  Sn96      1.0  0.78435  0.34638  0.76036  1.0000
  C   C231      1.0  0.80750  0.35090  0.66143  1.0000
  C   C232      1.0  0.81175  0.32600  0.57730  1.0000
  H   H143      1.0  0.79608  0.27712  0.52658  1.0000
  O  Te95      1.0  0.74183  0.31119  0.87281  1.0000
  O  Te96      1.0  0.78040  0.37150  0.84358  1.0000
  H   H144      1.0  0.82972  0.32970  0.50098  1.0000
  Mg  Mg48      1.0  0.74550  0.35279  0.96209  1.0000
