data_image0
_chemical_formula_structural       N8C48H16N4Co2N4H8N8C48H16N4Co2N4H8C2Sn2C2HTe2HMgC2Sn2C2HTe2HMgC2Sn2C2HTe2HMgC2Sn2C2HTe2HMgC2Sn2C2HTe2HMgC2Sn2C2HTe2HMgC2Sn2C2HTe2HMgC2Sn2C2HTe2HMgC2Sn2C2HTe2HMgC2Sn2C2HTe2HMgC2Sn2C2HTe2HMgC2Sn2C2HTe2HMgC2Sn2C2HTe2HMgC2Sn2C2HTe2HMgC2Sn2C2HTe2HMgC2Sn2C2HTe2HMgC2Sn2C2HTe2HMgC2Sn2C2HTe2HMgC2Sn2C2HTe2HMgC2Sn2C2HTe2HMgC2Sn2C2HTe2HMgC2Sn2C2HTe2HMgC2Sn2C2HTe2HMgC2Sn2C2HTe2HMg
_chemical_formula_sum              "N32 C192 H96 Co4 Sn48 Te48 Mg24"
_cell_length_a       38.9874
_cell_length_b       33.1392
_cell_length_c       10.3378
_cell_angle_alpha    90.2757
_cell_angle_beta     91.6271
_cell_angle_gamma    90.1037

_symmetry_space_group_name_H-M    'P1'
_space_group_IT_number       1

loop_
  _space_group_symop_operation_xyz
  'x, y, z'

loop_
  _atom_site_type_symbol
  _atom_site_label
  _atom_site_symmetry_multiplicity
  _atom_site_fract_x
  _atom_site_fract_y
  _atom_site_fract_z
  _atom_site_occupancy
  N   N1        1.0  0.17518  0.18380  0.07338  1.0000
  N   N2        1.0  0.82547  0.81543  0.06495  1.0000
  N   N3        1.0  0.82380  0.18411  0.42830  1.0000
  N   N4        1.0  0.17552  0.81932  0.42667  1.0000
  N   N5        1.0  0.32407  0.31640  0.43285  1.0000
  N   N6        1.0  0.67363  0.68452  0.42826  1.0000
  N   N7        1.0  0.67763  0.31829  0.06166  1.0000
  N   N8        1.0  0.32412  0.68117  0.06042  1.0000
  C   C1        1.0  0.18528  0.20688  0.47557  1.0000
  C   C2        1.0  0.81361  0.79174  0.47147  1.0000
  C   C3        1.0  0.81348  0.20603  0.01547  1.0000
  C   C4        1.0  0.18800  0.79413  0.01895  1.0000
  C   C5        1.0  0.31331  0.29330  0.03691  1.0000
  C   C6        1.0  0.68805  0.70380  0.02269  1.0000
  C   C7        1.0  0.68934  0.30090  0.46901  1.0000
  C   C8        1.0  0.31148  0.70533  0.46627  1.0000
  C   C9        1.0  0.47127  0.41367  0.50367  1.0000
  C   C10       1.0  0.52709  0.58774  0.49276  1.0000
  C   C11       1.0  0.52904  0.41287  0.01761  1.0000
  C   C12       1.0  0.47183  0.58599  0.01757  1.0000
  C   C13       1.0  0.02715  0.08688  0.00763  1.0000
  C   C14       1.0  0.97305  0.91204  0.00938  1.0000
  C   C15       1.0  0.96988  0.08619  0.49435  1.0000
  C   C16       1.0  0.02909  0.91430  0.48920  1.0000
  C   C17       1.0  0.43677  0.42622  0.49795  1.0000
  C   C18       1.0  0.56142  0.57524  0.48401  1.0000
  C   C19       1.0  0.56339  0.42595  0.02090  1.0000
  C   C20       1.0  0.43753  0.57299  0.02331  1.0000
  C   C21       1.0  0.06179  0.07496  0.01647  1.0000
  C   C22       1.0  0.93855  0.92412  0.01695  1.0000
  C   C23       1.0  0.93557  0.07273  0.48596  1.0000
  C   C24       1.0  0.06334  0.92782  0.49044  1.0000
  C   C25       1.0  0.42610  0.46678  0.50607  1.0000
  C   C26       1.0  0.57226  0.53473  0.49179  1.0000
  C   C27       1.0  0.57379  0.46658  0.01171  1.0000
  C   C28       1.0  0.42702  0.53227  0.01564  1.0000
  C   C29       1.0  0.07298  0.03459  0.00742  1.0000
  C   C30       1.0  0.92738  0.96452  0.00900  1.0000
  C   C31       1.0  0.92560  0.03185  0.49362  1.0000
  C   C32       1.0  0.07340  0.96843  0.50697  1.0000
  C   C33       1.0  0.48244  0.37220  0.50415  1.0000
  C   C34       1.0  0.51595  0.62920  0.49049  1.0000
  C   C35       1.0  0.51833  0.37118  0.01916  1.0000
  C   C36       1.0  0.48259  0.62765  0.01763  1.0000
  C   C37       1.0  0.01557  0.12821  0.00698  1.0000
  C   C38       1.0  0.98453  0.87071  0.00621  1.0000
  C   C39       1.0  0.98032  0.12796  0.49473  1.0000
  C   C40       1.0  0.01877  0.87257  0.47962  1.0000
  C   C41       1.0  0.39074  0.47931  0.51102  1.0000
  C   C42       1.0  0.60767  0.52222  0.49312  1.0000
  C   C43       1.0  0.60902  0.47961  0.00678  1.0000
  C   C44       1.0  0.39166  0.51931  0.00827  1.0000
  C   C45       1.0  0.10843  0.02265  0.00005  1.0000
  C   C46       1.0  0.89184  0.97658  0.00617  1.0000
  C   C47       1.0  0.89051  0.01821  0.49702  1.0000
  C   C48       1.0  0.10858  0.98185  0.51795  1.0000
  H   H1        1.0  0.17274  0.20740  0.37888  1.0000
  H   H2        1.0  0.82624  0.78722  0.37865  1.0000
  H   H3        1.0  0.82741  0.21038  0.10866  1.0000
  H   H4        1.0  0.17560  0.79025  0.11241  1.0000
  H   H5        1.0  0.32594  0.29130  0.13321  1.0000
  H   H6        1.0  0.67696  0.70512  0.11939  1.0000
  H   H7        1.0  0.67692  0.30057  0.37205  1.0000
  H   H8        1.0  0.32369  0.70789  0.37198  1.0000
  H   H9        1.0  0.46580  0.34610  0.49618  1.0000
  H   H10       1.0  0.53240  0.65514  0.47824  1.0000
  H   H11       1.0  0.53533  0.34545  0.02676  1.0000
  H   H12       1.0  0.46592  0.65343  0.02894  1.0000
  H   H13       1.0  0.03185  0.15457  0.01841  1.0000
  H   H14       1.0  0.96815  0.84443  0.01279  1.0000
  H   H15       1.0  0.96319  0.15344  0.48399  1.0000
  H   H16       1.0  0.03578  0.84728  0.46536  1.0000
  N   N9        1.0  0.44841  0.49900  0.01067  1.0000
  N   N10       1.0  0.55223  0.49976  0.00242  1.0000
  N   N11       1.0  0.05208  0.00069  0.99969  1.0000
  N   N12       1.0  0.94812  0.99824  0.99813  1.0000
  Co  Co1       1.0  0.50042  0.49951  0.00819  1.0000
  Co  Co2       1.0  0.00014  0.99934  0.99796  1.0000
  N   N13       1.0  0.50010  0.56104  0.00648  1.0000
  N   N14       1.0  0.50054  0.43775  0.01075  1.0000
  N   N15       1.0  0.00096  0.93781  0.00118  1.0000
  N   N16       1.0  0.99922  0.06107  0.99592  1.0000
  H   H17       1.0  0.13089  0.96250  0.51682  1.0000
  H   H18       1.0  0.87014  0.95635  0.01119  1.0000
  H   H19       1.0  0.86811  0.03742  0.49353  1.0000
  H   H20       1.0  0.13020  0.04295  0.00157  1.0000
  H   H21       1.0  0.62955  0.54212  0.48662  1.0000
  H   H22       1.0  0.63118  0.46002  0.01200  1.0000
  H   H23       1.0  0.36871  0.45938  0.50896  1.0000
  H   H24       1.0  0.36956  0.53899  0.00779  1.0000
  N   N17       1.0  0.17342  0.18664  0.57148  1.0000
  N   N18       1.0  0.82567  0.81518  0.56254  1.0000
  N   N19       1.0  0.82336  0.18135  0.92661  1.0000
  N   N20       1.0  0.17635  0.81807  0.92937  1.0000
  N   N21       1.0  0.32494  0.31508  0.94412  1.0000
  N   N22       1.0  0.67479  0.68270  0.92804  1.0000
  N   N23       1.0  0.67743  0.32104  0.56558  1.0000
  N   N24       1.0  0.32357  0.68321  0.55982  1.0000
  C   C49       1.0  0.18642  0.20599  0.98079  1.0000
  C   C50       1.0  0.81224  0.79458  0.96970  1.0000
  C   C51       1.0  0.81170  0.20525  0.52230  1.0000
  C   C52       1.0  0.18796  0.79710  0.51929  1.0000
  C   C53       1.0  0.31149  0.29600  0.52696  1.0000
  C   C54       1.0  0.68665  0.70620  0.52197  1.0000
  C   C55       1.0  0.68849  0.29652  0.96688  1.0000
  C   C56       1.0  0.31184  0.70269  0.96579  1.0000
  C   C57       1.0  0.47224  0.41242  0.00537  1.0000
  C   C58       1.0  0.52821  0.58636  0.99637  1.0000
  C   C59       1.0  0.52810  0.41432  0.51808  1.0000
  C   C60       1.0  0.47072  0.58733  0.51355  1.0000
  C   C61       1.0  0.02662  0.08735  0.51706  1.0000
  C   C62       1.0  0.97252  0.91268  0.50329  1.0000
  C   C63       1.0  0.97044  0.08551  0.98626  1.0000
  C   C64       1.0  0.02959  0.91338  0.99122  1.0000
  C   C65       1.0  0.43778  0.42492  0.99735  1.0000
  C   C66       1.0  0.56248  0.57376  0.98561  1.0000
  C   C67       1.0  0.56244  0.42750  0.52180  1.0000
  C   C68       1.0  0.43653  0.57433  0.52390  1.0000
  C   C69       1.0  0.06120  0.07543  0.52970  1.0000
  C   C70       1.0  0.93805  0.92459  0.51315  1.0000
  C   C71       1.0  0.93621  0.07189  0.97998  1.0000
  C   C72       1.0  0.06372  0.92695  0.98315  1.0000
  C   C73       1.0  0.42709  0.46549  0.00170  1.0000
  C   C74       1.0  0.57332  0.53322  0.99206  1.0000
  C   C75       1.0  0.57275  0.46813  0.51173  1.0000
  C   C76       1.0  0.42600  0.53359  0.52083  1.0000
  C   C77       1.0  0.07246  0.03504  0.52711  1.0000
  C   C78       1.0  0.92678  0.96506  0.50929  1.0000
  C   C79       1.0  0.92626  0.03111  0.98952  1.0000
  C   C80       1.0  0.07383  0.96781  0.98893  1.0000
  C   C81       1.0  0.48328  0.37089  0.00803  1.0000
  C   C82       1.0  0.51725  0.62788  0.00019  1.0000
  C   C83       1.0  0.51748  0.37261  0.51716  1.0000
  C   C84       1.0  0.48128  0.62898  0.50720  1.0000
  C   C85       1.0  0.01523  0.12870  0.51261  1.0000
  C   C86       1.0  0.98398  0.87146  0.49289  1.0000
  C   C87       1.0  0.98070  0.12737  0.98865  1.0000
  C   C88       1.0  0.01929  0.87153  0.99135  1.0000
  C   C89       1.0  0.39171  0.47810  0.00117  1.0000
  C   C90       1.0  0.60876  0.52072  0.99542  1.0000
  C   C91       1.0  0.60797  0.48110  0.50398  1.0000
  C   C92       1.0  0.39068  0.52055  0.51888  1.0000
  C   C93       1.0  0.10801  0.02300  0.52868  1.0000
  C   C94       1.0  0.89122  0.97704  0.50589  1.0000
  C   C95       1.0  0.89116  0.01766  0.99568  1.0000
  C   C96       1.0  0.10898  0.98148  0.98970  1.0000
  H   H25       1.0  0.17288  0.20918  0.88653  1.0000
  H   H26       1.0  0.82311  0.79395  0.87258  1.0000
  H   H27       1.0  0.82281  0.20464  0.62141  1.0000
  H   H28       1.0  0.17678  0.79594  0.61584  1.0000
  H   H29       1.0  0.32327  0.29567  0.62505  1.0000
  H   H30       1.0  0.67530  0.70805  0.61806  1.0000
  H   H31       1.0  0.67497  0.29433  0.87218  1.0000
  H   H32       1.0  0.32358  0.70402  0.87027  1.0000
  H   H33       1.0  0.46641  0.34491  0.00317  1.0000
  H   H34       1.0  0.53378  0.65390  0.99140  1.0000
  H   H35       1.0  0.53448  0.34689  0.52399  1.0000
  H   H36       1.0  0.46446  0.65479  0.51319  1.0000
  H   H37       1.0  0.03167  0.15496  0.52191  1.0000
  H   H38       1.0  0.96771  0.84501  0.49377  1.0000
  H   H39       1.0  0.96361  0.15294  0.97909  1.0000
  H   H40       1.0  0.03628  0.84598  0.98136  1.0000
  N   N25       1.0  0.44740  0.50034  0.51312  1.0000
  N   N26       1.0  0.55119  0.50128  0.50352  1.0000
  N   N27       1.0  0.05157  0.00126  0.51479  1.0000
  N   N28       1.0  0.94752  0.99896  0.50192  1.0000
  Co  Co3       1.0  0.49926  0.50064  0.50839  1.0000
  Co  Co4       1.0  0.99948  0.00020  0.50731  1.0000
  N   N29       1.0  0.49908  0.56242  0.50570  1.0000
  N   N30       1.0  0.49952  0.43910  0.51121  1.0000
  N   N31       1.0  0.00045  0.93858  0.50145  1.0000
  N   N32       1.0  0.99857  0.06167  0.50614  1.0000
  H   H41       1.0  0.13129  0.96231  0.98307  1.0000
  H   H42       1.0  0.86951  0.95673  0.50866  1.0000
  H   H43       1.0  0.86882  0.03698  0.99295  1.0000
  H   H44       1.0  0.12981  0.04324  0.53558  1.0000
  H   H45       1.0  0.63069  0.54066  0.99076  1.0000
  H   H46       1.0  0.63014  0.46152  0.50614  1.0000
  H   H47       1.0  0.36968  0.45819  0.99628  1.0000
  H   H48       1.0  0.36863  0.54025  0.52188  1.0000
  C   C97       1.0  0.36282  0.38044  0.35035  1.0000
  C   C98       1.0  0.35561  0.34627  0.42354  1.0000
  C  Sn1       1.0  0.37572  0.33711  0.53349  1.0000
  C  Sn2       1.0  0.40354  0.36270  0.57062  1.0000
  C   C99       1.0  0.41053  0.39683  0.49680  1.0000
  C   C100      1.0  0.39026  0.40570  0.38694  1.0000
  H   H49       1.0  0.34712  0.38732  0.26539  1.0000
  O  Te1       1.0  0.36816  0.30285  0.60549  1.0000
  O  Te2       1.0  0.42404  0.35427  0.68009  1.0000
  H   H50       1.0  0.39584  0.43217  0.33034  1.0000
  Mg  Mg1       1.0  0.40353  0.30407  0.74683  1.0000
  C   C101      1.0  0.63375  0.62091  0.34125  1.0000
  C   C102      1.0  0.64185  0.65494  0.41647  1.0000
  C  Sn3       1.0  0.62292  0.66404  0.52554  1.0000
  C  Sn4       1.0  0.59538  0.63854  0.55970  1.0000
  C   C103      1.0  0.58749  0.60455  0.48387  1.0000
  C   C104      1.0  0.60660  0.59573  0.37491  1.0000
  H   H51       1.0  0.64854  0.61407  0.25698  1.0000
  O  Te3       1.0  0.63136  0.69817  0.59960  1.0000
  O  Te4       1.0  0.57604  0.64692  0.66824  1.0000
  H   H52       1.0  0.60033  0.56936  0.31673  1.0000
  Mg  Mg2       1.0  0.59744  0.69693  0.73861  1.0000
  C   C105      1.0  0.60035  0.35681  0.92290  1.0000
  C   C106      1.0  0.58277  0.38446  0.01218  1.0000
  C  Sn5       1.0  0.60294  0.39213  0.12347  1.0000
  C  Sn6       1.0  0.63374  0.37015  0.14550  1.0000
  C   C107      1.0  0.64358  0.34106  0.05555  1.0000
  C   C108      1.0  0.63073  0.33513  0.94453  1.0000
  H   H53       1.0  0.58459  0.35106  0.83696  1.0000
  O  Te5       1.0  0.59252  0.42137  0.21169  1.0000
  O  Te6       1.0  0.65439  0.37723  0.25590  1.0000
  H   H54       1.0  0.63852  0.31256  0.87539  1.0000
  Mg  Mg3       1.0  0.62932  0.42011  0.34771  1.0000
  C   C109      1.0  0.36324  0.61815  0.15364  1.0000
  C   C110      1.0  0.35567  0.65169  0.07662  1.0000
  C  Sn7       1.0  0.38328  0.66213  0.97062  1.0000
  C  Sn8       1.0  0.41144  0.63694  0.94141  1.0000
  C   C111      1.0  0.41126  0.60192  0.01900  1.0000
  C   C112      1.0  0.39101  0.59328  0.12486  1.0000
  H   H55       1.0  0.34756  0.61144  0.23550  1.0000
  O  Te7       1.0  0.37536  0.69576  0.89472  1.0000
  O  Te8       1.0  0.43192  0.64515  0.83601  1.0000
  H   H56       1.0  0.39686  0.56729  0.18442  1.0000
  Mg  Mg4       1.0  0.41085  0.69446  0.76142  1.0000
  C   C113      1.0  0.13528  0.12201  0.16379  1.0000
  C   C114      1.0  0.14493  0.15261  0.07961  1.0000
  C  Sn9       1.0  0.13188  0.16328  0.97089  1.0000
  C  Sn10      1.0  0.10107  0.14134  0.94627  1.0000
  C   C115      1.0  0.08411  0.10928  0.03113  1.0000
  C   C116      1.0  0.10490  0.10036  0.13960  1.0000
  H   H57       1.0  0.15136  0.11512  0.24776  1.0000
  O  Te9       1.0  0.14190  0.19394  0.88776  1.0000
  O  Te10      1.0  0.08002  0.14987  0.83836  1.0000
  H   H58       1.0  0.09741  0.07669  0.20480  1.0000
  Mg  Mg5       1.0  0.10463  0.19437  0.75349  1.0000
  C   C117      1.0  0.88546  0.83944  0.92836  1.0000
  C   C118      1.0  0.85467  0.83351  0.02776  1.0000
  C  Sn11      1.0  0.85517  0.86051  0.13203  1.0000
  C  Sn12      1.0  0.87943  0.89249  0.13658  1.0000
  C   C119      1.0  0.90257  0.89667  0.03662  1.0000
  C   C120      1.0  0.90938  0.87099  0.93276  1.0000
  H   H59       1.0  0.88489  0.81842  0.84797  1.0000
  O  Te11      1.0  0.83177  0.85565  0.23054  1.0000
  O  Te12      1.0  0.88048  0.91991  0.23963  1.0000
  H   H60       1.0  0.92737  0.87443  0.85577  1.0000
  Mg  Mg6       1.0  0.84332  0.90071  0.35069  1.0000
  C   C121      1.0  0.88406  0.15782  0.57146  1.0000
  C   C122      1.0  0.86003  0.16269  0.46990  1.0000
  C  Sn13      1.0  0.85885  0.13537  0.36652  1.0000
  C  Sn14      1.0  0.88219  0.10258  0.36507  1.0000
  C   C123      1.0  0.90613  0.09796  0.46718  1.0000
  C   C124      1.0  0.90709  0.12548  0.57013  1.0000
  H   H61       1.0  0.88480  0.17910  0.65116  1.0000
  O  Te13      1.0  0.83468  0.14068  0.26581  1.0000
  O  Te14      1.0  0.88157  0.07482  0.26296  1.0000
  H   H62       1.0  0.92569  0.12169  0.64879  1.0000
  Mg  Mg7       1.0  0.84391  0.09489  0.14807  1.0000
  C   C125      1.0  0.09891  0.85424  0.56404  1.0000
  C   C126      1.0  0.09249  0.89045  0.49909  1.0000
  C  Sn15      1.0  0.11283  0.90192  0.39634  1.0000
  C  Sn16      1.0  0.14008  0.87659  0.35811  1.0000
  C   C127      1.0  0.14628  0.84041  0.42364  1.0000
  C   C128      1.0  0.12578  0.82923  0.52635  1.0000
  H   H63       1.0  0.08304  0.84557  0.64346  1.0000
  O  Te15      1.0  0.10607  0.93820  0.33254  1.0000
  O  Te16      1.0  0.16080  0.88732  0.25571  1.0000
  H   H64       1.0  0.13074  0.80118  0.57657  1.0000
  Mg  Mg8       1.0  0.14144  0.93972  0.19884  1.0000
  C   C129      1.0  0.86729  0.87619  0.65725  1.0000
  C   C130      1.0  0.85582  0.84662  0.56933  1.0000
  C  Sn17      1.0  0.87425  0.83854  0.45821  1.0000
  C  Sn18      1.0  0.90471  0.86051  0.43496  1.0000
  C   C131      1.0  0.91598  0.89001  0.52356  1.0000
  C   C132      1.0  0.89734  0.89787  0.63442  1.0000
  H   H65       1.0  0.85287  0.88226  0.74306  1.0000
  O  Te17      1.0  0.86243  0.80890  0.37135  1.0000
  O  Te18      1.0  0.92363  0.85303  0.32471  1.0000
  H   H66       1.0  0.90623  0.92075  0.70252  1.0000
  Mg  Mg9       1.0  0.89710  0.80970  0.23498  1.0000
  C   C133      1.0  0.11982  0.11030  0.66489  1.0000
  C   C134      1.0  0.09257  0.10780  0.57442  1.0000
  C  Sn19      1.0  0.09146  0.13327  0.46710  1.0000
  C  Sn20      1.0  0.11816  0.16175  0.45029  1.0000
  C   C135      1.0  0.14533  0.16400  0.54129  1.0000
  C   C136      1.0  0.14618  0.13836  0.64835  1.0000
  H   H67       1.0  0.12049  0.09045  0.74769  1.0000
  O  Te19      1.0  0.06404  0.13038  0.37767  1.0000
  O  Te20      1.0  0.11770  0.18757  0.34389  1.0000
  H   H68       1.0  0.16730  0.14029  0.71834  1.0000
  Mg  Mg10      1.0  0.07487  0.17213  0.24850  1.0000
  C   C137      1.0  0.11753  0.84347  0.07172  1.0000
  C   C138      1.0  0.14767  0.83985  0.97046  1.0000
  C  Sn21      1.0  0.14662  0.86611  0.86512  1.0000
  C  Sn22      1.0  0.12248  0.89810  0.86137  1.0000
  C   C139      1.0  0.09999  0.90301  0.96321  1.0000
  C   C140      1.0  0.09372  0.87503  0.06813  1.0000
  H   H69       1.0  0.11851  0.82301  0.15294  1.0000
  O  Te21      1.0  0.16939  0.86053  0.76474  1.0000
  O  Te22      1.0  0.12090  0.92480  0.75728  1.0000
  H   H70       1.0  0.07623  0.87903  0.14656  1.0000
  Mg  Mg11      1.0  0.15728  0.90477  0.64375  1.0000
  C   C141      1.0  0.90059  0.14330  0.06801  1.0000
  C   C142      1.0  0.91440  0.11033  0.99408  1.0000
  C  Sn23      1.0  0.89360  0.10127  0.88550  1.0000
  C  Sn24      1.0  0.86603  0.12728  0.85051  1.0000
  C   C143      1.0  0.85998  0.16172  0.92505  1.0000
  C   C144      1.0  0.87342  0.16898  0.03353  1.0000
  H   H71       1.0  0.91682  0.15010  0.15191  1.0000
  O  Te23      1.0  0.90022  0.06669  0.81274  1.0000
  O  Te24      1.0  0.84485  0.11895  0.74243  1.0000
  H   H72       1.0  0.86856  0.19569  0.09070  1.0000
  Mg  Mg12      1.0  0.86417  0.06821  0.67391  1.0000
  C   C145      1.0  0.61829  0.60655  0.84233  1.0000
  C   C146      1.0  0.59534  0.60245  0.94285  1.0000
  C  Sn25      1.0  0.58868  0.62816  0.04650  1.0000
  C  Sn26      1.0  0.61301  0.66007  0.04928  1.0000
  C   C147      1.0  0.64338  0.66545  0.94821  1.0000
  C   C148      1.0  0.64229  0.63803  0.84498  1.0000
  H   H73       1.0  0.61744  0.58535  0.76242  1.0000
  O  Te25      1.0  0.56557  0.62361  0.14615  1.0000
  O  Te26      1.0  0.61444  0.68771  0.15168  1.0000
  H   H74       1.0  0.66005  0.64123  0.76713  1.0000
  Mg  Mg13      1.0  0.57757  0.66890  0.26479  1.0000
  C   C149      1.0  0.38011  0.39052  0.85602  1.0000
  C   C150      1.0  0.40426  0.39579  0.95720  1.0000
  C  Sn27      1.0  0.39722  0.36812  0.06284  1.0000
  C  Sn28      1.0  0.37305  0.33612  0.06697  1.0000
  C   C151      1.0  0.35653  0.33261  0.96522  1.0000
  C   C152      1.0  0.35627  0.35896  0.86000  1.0000
  H   H75       1.0  0.37991  0.41090  0.77457  1.0000
  O  Te27      1.0  0.42151  0.37382  0.16312  1.0000
  O  Te28      1.0  0.37297  0.30954  0.17136  1.0000
  H   H76       1.0  0.33758  0.35486  0.78164  1.0000
  Mg  Mg14      1.0  0.41112  0.32971  0.28463  1.0000
  C   C153      1.0  0.36380  0.62194  0.65790  1.0000
  C   C154      1.0  0.35551  0.65429  0.57668  1.0000
  C  Sn29      1.0  0.37447  0.66140  0.46638  1.0000
  C  Sn30      1.0  0.40223  0.63560  0.43709  1.0000
  C   C155      1.0  0.41030  0.60331  0.51891  1.0000
  C   C156      1.0  0.39116  0.59647  0.62905  1.0000
  H   H77       1.0  0.34899  0.61664  0.74308  1.0000
  O  Te29      1.0  0.36585  0.69387  0.38630  1.0000
  O  Te30      1.0  0.42159  0.64202  0.32745  1.0000
  H   H78       1.0  0.39757  0.57141  0.69187  1.0000
  Mg  Mg15      1.0  0.39989  0.69024  0.24810  1.0000
  C   C157      1.0  0.59974  0.35819  0.42685  1.0000
  C   C158      1.0  0.58966  0.38787  0.51436  1.0000
  C  Sn31      1.0  0.60996  0.39641  0.62468  1.0000
  C  Sn32      1.0  0.64091  0.37481  0.64755  1.0000
  C   C159      1.0  0.65078  0.34519  0.55937  1.0000
  C   C160      1.0  0.63027  0.33687  0.44930  1.0000
  H   H79       1.0  0.58388  0.35177  0.34165  1.0000
  O  Te31      1.0  0.59950  0.42615  0.71114  1.0000
  O  Te32      1.0  0.66168  0.38275  0.75701  1.0000
  H   H80       1.0  0.63809  0.31391  0.38153  1.0000
  Mg  Mg16      1.0  0.63651  0.42605  0.84644  1.0000
  C   C161      1.0  0.26659  0.23369  0.12548  1.0000
  C   C162      1.0  0.28070  0.26189  0.04201  1.0000
  C  Sn33      1.0  0.26976  0.27591  0.93161  1.0000
  C  Sn34      1.0  0.23655  0.25986  0.90455  1.0000
  C   C163      1.0  0.22266  0.23169  0.98872  1.0000
  C   C164      1.0  0.23383  0.21786  0.09890  1.0000
  H   H81       1.0  0.28106  0.22418  0.21077  1.0000
  O  Te33      1.0  0.28425  0.30409  0.84921  1.0000
  O  Te34      1.0  0.21753  0.27185  0.79492  1.0000
  H   H82       1.0  0.22289  0.19605  0.16356  1.0000
  Mg  Mg17      1.0  0.24829  0.31100  0.71193  1.0000
  C   C165      1.0  0.75214  0.77495  0.11104  1.0000
  C   C166      1.0  0.77706  0.77160  0.01707  1.0000
  C  Sn35      1.0  0.77954  0.74699  0.91175  1.0000
  C  Sn36      1.0  0.74895  0.72383  0.90053  1.0000
  C   C167      1.0  0.72416  0.72742  0.99501  1.0000
  C   C168      1.0  0.72195  0.75213  0.10002  1.0000
  H   H83       1.0  0.75625  0.79525  0.19226  1.0000
  O  Te35      1.0  0.80471  0.74400  0.81876  1.0000
  O  Te36      1.0  0.74324  0.69750  0.79623  1.0000
  H   H84       1.0  0.70264  0.75474  0.17272  1.0000
  Mg  Mg18      1.0  0.78514  0.70393  0.69439  1.0000
  C   C169      1.0  0.76785  0.26749  0.61351  1.0000
  C   C170      1.0  0.77898  0.23616  0.53415  1.0000
  C  Sn37      1.0  0.76086  0.22662  0.41950  1.0000
  C  Sn38      1.0  0.73106  0.24892  0.38387  1.0000
  C   C171      1.0  0.72015  0.28023  0.46388  1.0000
  C   C172      1.0  0.73847  0.28951  0.57841  1.0000
  H   H85       1.0  0.78203  0.27469  0.70209  1.0000
  O  Te37      1.0  0.77232  0.19522  0.34136  1.0000
  O  Te38      1.0  0.71247  0.24003  0.26978  1.0000
  H   H86       1.0  0.72986  0.31379  0.63979  1.0000
  Mg  Mg19      1.0  0.73831  0.19451  0.19536  1.0000
  C   C173      1.0  0.24878  0.77811  0.38094  1.0000
  C   C174      1.0  0.22301  0.77400  0.47121  1.0000
  C  Sn39      1.0  0.22676  0.74645  0.57249  1.0000
  C  Sn40      1.0  0.25690  0.72262  0.58337  1.0000
  C   C175      1.0  0.28254  0.72699  0.49261  1.0000
  C   C176      1.0  0.27852  0.75463  0.39162  1.0000
  H   H87       1.0  0.24569  0.79952  0.30284  1.0000
  O  Te39      1.0  0.20076  0.74271  0.66182  1.0000
  O  Te40      1.0  0.26131  0.69487  0.68367  1.0000
  H   H88       1.0  0.29849  0.75783  0.32180  1.0000
  Mg  Mg20      1.0  0.21865  0.70072  0.78146  1.0000
  C   C177      1.0  0.25000  0.27481  0.38089  1.0000
  C   C178      1.0  0.27363  0.27648  0.48499  1.0000
  C  Sn41      1.0  0.26944  0.25184  0.59271  1.0000
  C  Sn42      1.0  0.24105  0.22505  0.59596  1.0000
  C   C179      1.0  0.21757  0.22358  0.49127  1.0000
  C   C180      1.0  0.22200  0.24838  0.38399  1.0000
  H   H89       1.0  0.25344  0.29398  0.29784  1.0000
  O  Te41      1.0  0.29328  0.25390  0.69591  1.0000
  O  Te42      1.0  0.23626  0.20007  0.70238  1.0000
  H   H90       1.0  0.20371  0.24707  0.30336  1.0000
  Mg  Mg21      1.0  0.27568  0.21386  0.81936  1.0000
  C   C181      1.0  0.73499  0.76541  0.61345  1.0000
  C   C182      1.0  0.71960  0.73722  0.52911  1.0000
  C  Sn43      1.0  0.73669  0.72410  0.41968  1.0000
  C  Sn44      1.0  0.76980  0.73952  0.39450  1.0000
  C   C183      1.0  0.78498  0.76769  0.47951  1.0000
  C   C184      1.0  0.76765  0.78063  0.58871  1.0000
  H   H91       1.0  0.72158  0.77541  0.69797  1.0000
  O  Te43      1.0  0.72095  0.69593  0.33640  1.0000
  O  Te44      1.0  0.78746  0.72691  0.28587  1.0000
  H   H92       1.0  0.77957  0.80244  0.65403  1.0000
  Mg  Mg22      1.0  0.75530  0.68805  0.20107  1.0000
  C   C185      1.0  0.74975  0.22347  0.87963  1.0000
  C   C186      1.0  0.77705  0.22791  0.96915  1.0000
  C  Sn45      1.0  0.76748  0.25430  0.07037  1.0000
  C  Sn46      1.0  0.73752  0.27814  0.08195  1.0000
  C   C187      1.0  0.71788  0.27496  0.99195  1.0000
  C   C188      1.0  0.72019  0.24696  0.89101  1.0000
  H   H93       1.0  0.75153  0.20179  0.80156  1.0000
  O  Te45      1.0  0.79499  0.25836  0.15894  1.0000
  O  Te46      1.0  0.73480  0.30625  0.18221  1.0000
  H   H94       1.0  0.69904  0.24351  0.82176  1.0000
  Mg  Mg23      1.0  0.77912  0.30076  0.27884  1.0000
  C   C189      1.0  0.23357  0.73193  0.10455  1.0000
  C   C190      1.0  0.22179  0.76479  0.03178  1.0000
  C  Sn47      1.0  0.24720  0.77904  0.92403  1.0000
  C  Sn48      1.0  0.27742  0.75843  0.88870  1.0000
  C   C191      1.0  0.28898  0.72557  0.96208  1.0000
  C   C192      1.0  0.26337  0.71157  0.06974  1.0000
  H   H95       1.0  0.21958  0.72226  0.18781  1.0000
  O  Te47      1.0  0.23508  0.81194  0.85243  1.0000
  O  Te48      1.0  0.29577  0.77051  0.78144  1.0000
  H   H96       1.0  0.27249  0.68611  0.12601  1.0000
  Mg  Mg24      1.0  0.26901  0.81702  0.71438  1.0000
