data_image0
_chemical_formula_structural       C8H8C6H6N8C71H26N4Co2N4H8C6H6C8H8N8C69H26N4Co2N4H8SnCSn2CSnTe4Mg2SnCSn2CSnTe4Mg2SnCSn2CSnTe4Mg2SnCSn2CSnTe4Mg2SnCSn2CSnTe4Mg2SnCSn2CSnTe4Mg2SnCSn2CSnTe4Mg2SnCSn2CSnTe4Mg2SnCSn2CSnTe4Mg2SnCSn2CSnTe4Mg2SnCSn2CSnTe4Mg2SnCSn2CSnTe4Mg2
_chemical_formula_sum              "C192 H96 N32 Co4 Sn48 Te48 Mg24"
_cell_length_a       38.9874
_cell_length_b       33.1392
_cell_length_c       10.3378
_cell_angle_alpha    90.2757
_cell_angle_beta     91.6271
_cell_angle_gamma    90.1037

_symmetry_space_group_name_H-M    'P1'
_space_group_IT_number       1

loop_
  _space_group_symop_operation_xyz
  'x, y, z'

loop_
  _atom_site_type_symbol
  _atom_site_label
  _atom_site_symmetry_multiplicity
  _atom_site_fract_x
  _atom_site_fract_y
  _atom_site_fract_z
  _atom_site_occupancy
  C   C1        1.0  0.63805  0.63043  0.35276  1.0000
  C   C2        1.0  0.14038  0.13028  0.14893  1.0000
  C   C3        1.0  0.85703  0.12845  0.35487  1.0000
  C   C4        1.0  0.14178  0.87591  0.36023  1.0000
  C   C5        1.0  0.61090  0.60352  0.36364  1.0000
  C   C6        1.0  0.11302  0.10340  0.13732  1.0000
  C   C7        1.0  0.88396  0.10106  0.36649  1.0000
  C   C8        1.0  0.11465  0.90264  0.37367  1.0000
  H   H1        1.0  0.65540  0.62827  0.27257  1.0000
  H   H2        1.0  0.15922  0.12775  0.22801  1.0000
  H   H3        1.0  0.83878  0.12675  0.27345  1.0000
  H   H4        1.0  0.16005  0.87976  0.28371  1.0000
  H   H5        1.0  0.60672  0.58003  0.29092  1.0000
  H   H6        1.0  0.11018  0.07956  0.20828  1.0000
  H   H7        1.0  0.88705  0.07780  0.29308  1.0000
  H   H8        1.0  0.11129  0.92759  0.30644  1.0000
  C   C9        1.0  0.12442  0.83914  0.05136  1.0000
  C   C10       1.0  0.87753  0.16092  0.04627  1.0000
  C   C11       1.0  0.37880  0.33615  0.06577  1.0000
  C   C12       1.0  0.09727  0.86605  0.06166  1.0000
  C   C13       1.0  0.90453  0.13364  0.05685  1.0000
  C   C14       1.0  0.40597  0.36340  0.07627  1.0000
  H   H9        1.0  0.12839  0.81663  0.12650  1.0000
  H   H10       1.0  0.87535  0.18448  0.11921  1.0000
  H   H11       1.0  0.37597  0.31351  0.14057  1.0000
  H   H12       1.0  0.08084  0.86451  0.14481  1.0000
  H   H13       1.0  0.92265  0.13585  0.13859  1.0000
  H   H14       1.0  0.42347  0.36217  0.16001  1.0000
  N   N1        1.0  0.17518  0.18380  0.07338  1.0000
  N   N2        1.0  0.82547  0.81543  0.06495  1.0000
  N   N3        1.0  0.82380  0.18411  0.42830  1.0000
  N   N4        1.0  0.17552  0.81932  0.42667  1.0000
  N   N5        1.0  0.32407  0.31640  0.43285  1.0000
  N   N6        1.0  0.67363  0.68452  0.42826  1.0000
  N   N7        1.0  0.67763  0.31829  0.06166  1.0000
  N   N8        1.0  0.32412  0.68117  0.06042  1.0000
  C   C15       1.0  0.18528  0.20688  0.47557  1.0000
  C   C16       1.0  0.81361  0.79174  0.47147  1.0000
  C   C17       1.0  0.81348  0.20603  0.01547  1.0000
  C   C18       1.0  0.18800  0.79413  0.01895  1.0000
  C   C19       1.0  0.31331  0.29330  0.03691  1.0000
  C   C20       1.0  0.68805  0.70380  0.02269  1.0000
  C   C21       1.0  0.68934  0.30090  0.46901  1.0000
  C   C22       1.0  0.31148  0.70533  0.46627  1.0000
  C   C23       1.0  0.21739  0.22947  0.48916  1.0000
  C   C24       1.0  0.78123  0.77031  0.48539  1.0000
  C   C25       1.0  0.28135  0.27065  0.02016  1.0000
  C   C26       1.0  0.71966  0.72665  0.00777  1.0000
  C   C27       1.0  0.27976  0.72807  0.47986  1.0000
  C   C28       1.0  0.24224  0.21954  0.09841  1.0000
  C   C29       1.0  0.76030  0.77646  0.09342  1.0000
  C   C30       1.0  0.24050  0.77954  0.39782  1.0000
  C   C31       1.0  0.25754  0.27794  0.40185  1.0000
  C   C32       1.0  0.74045  0.71995  0.40424  1.0000
  C   C33       1.0  0.22698  0.25642  0.39123  1.0000
  C   C34       1.0  0.77123  0.74061  0.39365  1.0000
  C   C35       1.0  0.27282  0.24088  0.11102  1.0000
  C   C36       1.0  0.73019  0.75454  0.10447  1.0000
  C   C37       1.0  0.27041  0.75731  0.38660  1.0000
  C   C38       1.0  0.47127  0.41367  0.50367  1.0000
  C   C39       1.0  0.52709  0.58774  0.49276  1.0000
  C   C40       1.0  0.52904  0.41287  0.01761  1.0000
  C   C41       1.0  0.47183  0.58599  0.01757  1.0000
  C   C42       1.0  0.02715  0.08688  0.00763  1.0000
  C   C43       1.0  0.97305  0.91204  0.00938  1.0000
  C   C44       1.0  0.96988  0.08619  0.49435  1.0000
  C   C45       1.0  0.02909  0.91430  0.48920  1.0000
  C   C46       1.0  0.58855  0.60621  0.46779  1.0000
  C   C47       1.0  0.08885  0.10634  0.03403  1.0000
  C   C48       1.0  0.90770  0.10320  0.47149  1.0000
  C   C49       1.0  0.09106  0.89776  0.47304  1.0000
  C   C50       1.0  0.43677  0.42622  0.49795  1.0000
  C   C51       1.0  0.56142  0.57524  0.48401  1.0000
  C   C52       1.0  0.56339  0.42595  0.02090  1.0000
  C   C53       1.0  0.43753  0.57299  0.02331  1.0000
  C   C54       1.0  0.06179  0.07496  0.01647  1.0000
  C   C55       1.0  0.93855  0.92412  0.01695  1.0000
  C   C56       1.0  0.93557  0.07273  0.48596  1.0000
  C   C57       1.0  0.06334  0.92782  0.49044  1.0000
  C   C58       1.0  0.64410  0.66104  0.44542  1.0000
  C   C59       1.0  0.14492  0.16105  0.05754  1.0000
  C   C60       1.0  0.85255  0.15907  0.44782  1.0000
  C   C61       1.0  0.14644  0.84328  0.44557  1.0000
  C   C62       1.0  0.42610  0.46678  0.50607  1.0000
  C   C63       1.0  0.57226  0.53473  0.49179  1.0000
  C   C64       1.0  0.57379  0.46658  0.01171  1.0000
  C   C65       1.0  0.42702  0.53227  0.01564  1.0000
  C   C66       1.0  0.07298  0.03459  0.00742  1.0000
  C   C67       1.0  0.92738  0.96452  0.00900  1.0000
  C   C68       1.0  0.92560  0.03185  0.49362  1.0000
  C   C69       1.0  0.07340  0.96843  0.50697  1.0000
  C   C70       1.0  0.48244  0.37220  0.50415  1.0000
  C   C71       1.0  0.51595  0.62920  0.49049  1.0000
  C   C72       1.0  0.51833  0.37118  0.01916  1.0000
  C   C73       1.0  0.48259  0.62765  0.01763  1.0000
  C   C74       1.0  0.01557  0.12821  0.00698  1.0000
  C   C75       1.0  0.98453  0.87071  0.00621  1.0000
  C   C76       1.0  0.98032  0.12796  0.49473  1.0000
  C   C77       1.0  0.01877  0.87257  0.47962  1.0000
  C   C78       1.0  0.39074  0.47931  0.51102  1.0000
  C   C79       1.0  0.60767  0.52222  0.49312  1.0000
  C   C80       1.0  0.60902  0.47961  0.00678  1.0000
  C   C81       1.0  0.39166  0.51931  0.00827  1.0000
  C   C82       1.0  0.10843  0.02265  0.00005  1.0000
  C   C83       1.0  0.89184  0.97658  0.00617  1.0000
  C   C84       1.0  0.89051  0.01821  0.49702  1.0000
  C   C85       1.0  0.10858  0.98185  0.51795  1.0000
  H   H15       1.0  0.17274  0.20740  0.37888  1.0000
  H   H16       1.0  0.82624  0.78722  0.37865  1.0000
  H   H17       1.0  0.82741  0.21038  0.10866  1.0000
  H   H18       1.0  0.17560  0.79025  0.11241  1.0000
  H   H19       1.0  0.32594  0.29130  0.13321  1.0000
  H   H20       1.0  0.67696  0.70512  0.11939  1.0000
  H   H21       1.0  0.67692  0.30057  0.37205  1.0000
  H   H22       1.0  0.32369  0.70789  0.37198  1.0000
  H   H23       1.0  0.23551  0.19643  0.16765  1.0000
  H   H24       1.0  0.76854  0.79816  0.16724  1.0000
  H   H25       1.0  0.23333  0.80243  0.32711  1.0000
  H   H26       1.0  0.26491  0.29893  0.32701  1.0000
  H   H27       1.0  0.73262  0.69675  0.33467  1.0000
  H   H28       1.0  0.21017  0.26016  0.30621  1.0000
  H   H29       1.0  0.78794  0.73405  0.31366  1.0000
  H   H30       1.0  0.29044  0.23490  0.19225  1.0000
  H   H31       1.0  0.71440  0.75870  0.18863  1.0000
  H   H32       1.0  0.28701  0.76239  0.30524  1.0000
  H   H33       1.0  0.46580  0.34610  0.49618  1.0000
  H   H34       1.0  0.53240  0.65514  0.47824  1.0000
  H   H35       1.0  0.53533  0.34545  0.02676  1.0000
  H   H36       1.0  0.46592  0.65343  0.02894  1.0000
  H   H37       1.0  0.03185  0.15457  0.01841  1.0000
  H   H38       1.0  0.96815  0.84443  0.01279  1.0000
  H   H39       1.0  0.96319  0.15344  0.48399  1.0000
  H   H40       1.0  0.03578  0.84728  0.46536  1.0000
  N   N9        1.0  0.44841  0.49900  0.01067  1.0000
  N   N10       1.0  0.55223  0.49976  0.00242  1.0000
  N   N11       1.0  0.05208  0.00069  0.99969  1.0000
  N   N12       1.0  0.94812  0.99824  0.99813  1.0000
  Co  Co1       1.0  0.50042  0.49951  0.00819  1.0000
  Co  Co2       1.0  0.00014  0.99934  0.99796  1.0000
  N   N13       1.0  0.50010  0.56104  0.00648  1.0000
  N   N14       1.0  0.50054  0.43775  0.01075  1.0000
  N   N15       1.0  0.00096  0.93781  0.00118  1.0000
  N   N16       1.0  0.99922  0.06107  0.99592  1.0000
  H   H41       1.0  0.13089  0.96250  0.51682  1.0000
  H   H42       1.0  0.87014  0.95635  0.01119  1.0000
  H   H43       1.0  0.86811  0.03742  0.49353  1.0000
  H   H44       1.0  0.13020  0.04295  0.00157  1.0000
  H   H45       1.0  0.62955  0.54212  0.48662  1.0000
  H   H46       1.0  0.63118  0.46002  0.01200  1.0000
  H   H47       1.0  0.36871  0.45938  0.50896  1.0000
  H   H48       1.0  0.36956  0.53899  0.00779  1.0000
  C   C86       1.0  0.36012  0.36777  0.86567  1.0000
  C   C87       1.0  0.85687  0.12636  0.85269  1.0000
  C   C88       1.0  0.14043  0.87144  0.85270  1.0000
  C   C89       1.0  0.38732  0.39488  0.87633  1.0000
  C   C90       1.0  0.88400  0.09927  0.86321  1.0000
  C   C91       1.0  0.11322  0.89826  0.86318  1.0000
  H   H49       1.0  0.34217  0.36869  0.78329  1.0000
  H   H50       1.0  0.83808  0.12415  0.77317  1.0000
  H   H51       1.0  0.15731  0.87283  0.77089  1.0000
  H   H52       1.0  0.39100  0.41740  0.80168  1.0000
  H   H53       1.0  0.88680  0.07554  0.79113  1.0000
  H   H54       1.0  0.10852  0.92088  0.78880  1.0000
  C   C92       1.0  0.11959  0.16566  0.95851  1.0000
  C   C93       1.0  0.12190  0.83714  0.54121  1.0000
  C   C94       1.0  0.87696  0.16217  0.55080  1.0000
  C   C95       1.0  0.62078  0.66506  0.54652  1.0000
  C   C96       1.0  0.09228  0.13864  0.94706  1.0000
  C   C97       1.0  0.09498  0.86417  0.55505  1.0000
  C   C98       1.0  0.90377  0.13458  0.56236  1.0000
  C   C99       1.0  0.59370  0.63799  0.55731  1.0000
  H   H55       1.0  0.12166  0.18959  0.88751  1.0000
  H   H56       1.0  0.12414  0.81155  0.60640  1.0000
  H   H57       1.0  0.87476  0.18594  0.62302  1.0000
  H   H58       1.0  0.62416  0.68871  0.61909  1.0000
  H   H59       1.0  0.07390  0.14156  0.86652  1.0000
  H   H60       1.0  0.07711  0.86002  0.63283  1.0000
  H   H61       1.0  0.92164  0.13659  0.64487  1.0000
  H   H62       1.0  0.57678  0.64045  0.63880  1.0000
  N   N17       1.0  0.17342  0.18664  0.57148  1.0000
  N   N18       1.0  0.82567  0.81518  0.56254  1.0000
  N   N19       1.0  0.82336  0.18135  0.92661  1.0000
  N   N20       1.0  0.17635  0.81807  0.92937  1.0000
  N   N21       1.0  0.32494  0.31508  0.94412  1.0000
  N   N22       1.0  0.67479  0.68270  0.92804  1.0000
  N   N23       1.0  0.67743  0.32104  0.56558  1.0000
  N   N24       1.0  0.32357  0.68321  0.55982  1.0000
  C   C100      1.0  0.18642  0.20599  0.98079  1.0000
  C   C101      1.0  0.81224  0.79458  0.96970  1.0000
  C   C102      1.0  0.81170  0.20525  0.52230  1.0000
  C   C103      1.0  0.18796  0.79710  0.51929  1.0000
  C   C104      1.0  0.31149  0.29600  0.52696  1.0000
  C   C105      1.0  0.68665  0.70620  0.52197  1.0000
  C   C106      1.0  0.68849  0.29652  0.96688  1.0000
  C   C107      1.0  0.31184  0.70269  0.96579  1.0000
  C   C108      1.0  0.21894  0.22764  0.99509  1.0000
  C   C109      1.0  0.78090  0.77116  0.98488  1.0000
  C   C110      1.0  0.21887  0.77310  0.50269  1.0000
  C   C111      1.0  0.27964  0.27306  0.51091  1.0000
  C   C112      1.0  0.71858  0.72848  0.50702  1.0000
  C   C113      1.0  0.23961  0.22439  0.59779  1.0000
  C   C114      1.0  0.75921  0.77906  0.58762  1.0000
  C   C115      1.0  0.25827  0.27834  0.91581  1.0000
  C   C116      1.0  0.74041  0.72106  0.89977  1.0000
  C   C117      1.0  0.25790  0.72126  0.58389  1.0000
  C   C118      1.0  0.22763  0.25712  0.90349  1.0000
  C   C119      1.0  0.77046  0.74311  0.88847  1.0000
  C   C120      1.0  0.22801  0.74352  0.59508  1.0000
  C   C121      1.0  0.27008  0.24600  0.60859  1.0000
  C   C122      1.0  0.72851  0.75829  0.59862  1.0000
  C   C123      1.0  0.47224  0.41242  0.00537  1.0000
  C   C124      1.0  0.52821  0.58636  0.99637  1.0000
  C   C125      1.0  0.52810  0.41432  0.51808  1.0000
  C   C126      1.0  0.47072  0.58733  0.51355  1.0000
  C   C127      1.0  0.02662  0.08735  0.51706  1.0000
  C   C128      1.0  0.97252  0.91268  0.50329  1.0000
  C   C129      1.0  0.97044  0.08551  0.98626  1.0000
  C   C130      1.0  0.02959  0.91338  0.99122  1.0000
  C   C131      1.0  0.41038  0.39380  0.98337  1.0000
  C   C132      1.0  0.90827  0.10216  0.96618  1.0000
  C   C133      1.0  0.09138  0.89651  0.96900  1.0000
  C   C134      1.0  0.43778  0.42492  0.99735  1.0000
  C   C135      1.0  0.56248  0.57376  0.98561  1.0000
  C   C136      1.0  0.56244  0.42750  0.52180  1.0000
  C   C137      1.0  0.43653  0.57433  0.52390  1.0000
  C   C138      1.0  0.06120  0.07543  0.52970  1.0000
  C   C139      1.0  0.93805  0.92459  0.51315  1.0000
  C   C140      1.0  0.93621  0.07189  0.97998  1.0000
  C   C141      1.0  0.06372  0.92695  0.98315  1.0000
  C   C142      1.0  0.35471  0.33865  0.96166  1.0000
  C   C143      1.0  0.85273  0.15730  0.94468  1.0000
  C   C144      1.0  0.14706  0.84190  0.94757  1.0000
  C   C145      1.0  0.42709  0.46549  0.00170  1.0000
  C   C146      1.0  0.57332  0.53322  0.99206  1.0000
  C   C147      1.0  0.57275  0.46813  0.51173  1.0000
  C   C148      1.0  0.42600  0.53359  0.52083  1.0000
  C   C149      1.0  0.07246  0.03504  0.52711  1.0000
  C   C150      1.0  0.92678  0.96506  0.50929  1.0000
  C   C151      1.0  0.92626  0.03111  0.98952  1.0000
  C   C152      1.0  0.07383  0.96781  0.98893  1.0000
  C   C153      1.0  0.48328  0.37089  0.00803  1.0000
  C   C154      1.0  0.51725  0.62788  0.00019  1.0000
  C   C155      1.0  0.51748  0.37261  0.51716  1.0000
  C   C156      1.0  0.48128  0.62898  0.50720  1.0000
  C   C157      1.0  0.01523  0.12870  0.51261  1.0000
  C   C158      1.0  0.98398  0.87146  0.49289  1.0000
  C   C159      1.0  0.98070  0.12737  0.98865  1.0000
  C   C160      1.0  0.01929  0.87153  0.99135  1.0000
  C   C161      1.0  0.39171  0.47810  0.00117  1.0000
  C   C162      1.0  0.60876  0.52072  0.99542  1.0000
  C   C163      1.0  0.60797  0.48110  0.50398  1.0000
  C   C164      1.0  0.39068  0.52055  0.51888  1.0000
  C   C165      1.0  0.10801  0.02300  0.52868  1.0000
  C   C166      1.0  0.89122  0.97704  0.50589  1.0000
  C   C167      1.0  0.89116  0.01766  0.99568  1.0000
  C   C168      1.0  0.10898  0.98148  0.98970  1.0000
  H   H63       1.0  0.17288  0.20918  0.88653  1.0000
  H   H64       1.0  0.82311  0.79395  0.87258  1.0000
  H   H65       1.0  0.82281  0.20464  0.62141  1.0000
  H   H66       1.0  0.17678  0.79594  0.61584  1.0000
  H   H67       1.0  0.32327  0.29567  0.62505  1.0000
  H   H68       1.0  0.67530  0.70805  0.61806  1.0000
  H   H69       1.0  0.67497  0.29433  0.87218  1.0000
  H   H70       1.0  0.32358  0.70402  0.87027  1.0000
  H   H71       1.0  0.23225  0.20326  0.67228  1.0000
  H   H72       1.0  0.76704  0.80228  0.65711  1.0000
  H   H73       1.0  0.26502  0.30141  0.84643  1.0000
  H   H74       1.0  0.73229  0.69913  0.82648  1.0000
  H   H75       1.0  0.26514  0.69843  0.65475  1.0000
  H   H76       1.0  0.20990  0.26329  0.82276  1.0000
  H   H77       1.0  0.78620  0.73893  0.80418  1.0000
  H   H78       1.0  0.21134  0.73825  0.67603  1.0000
  H   H79       1.0  0.28698  0.24210  0.69322  1.0000
  H   H80       1.0  0.71185  0.76481  0.67885  1.0000
  H   H81       1.0  0.46641  0.34491  0.00317  1.0000
  H   H82       1.0  0.53378  0.65390  0.99140  1.0000
  H   H83       1.0  0.53448  0.34689  0.52399  1.0000
  H   H84       1.0  0.46446  0.65479  0.51319  1.0000
  H   H85       1.0  0.03167  0.15496  0.52191  1.0000
  H   H86       1.0  0.96771  0.84501  0.49377  1.0000
  H   H87       1.0  0.96361  0.15294  0.97909  1.0000
  H   H88       1.0  0.03628  0.84598  0.98136  1.0000
  N   N25       1.0  0.44740  0.50034  0.51312  1.0000
  N   N26       1.0  0.55119  0.50128  0.50352  1.0000
  N   N27       1.0  0.05157  0.00126  0.51479  1.0000
  N   N28       1.0  0.94752  0.99896  0.50192  1.0000
  Co  Co3       1.0  0.49926  0.50064  0.50839  1.0000
  Co  Co4       1.0  0.99948  0.00020  0.50731  1.0000
  N   N29       1.0  0.49908  0.56242  0.50570  1.0000
  N   N30       1.0  0.49952  0.43910  0.51121  1.0000
  N   N31       1.0  0.00045  0.93858  0.50145  1.0000
  N   N32       1.0  0.99857  0.06167  0.50614  1.0000
  H   H89       1.0  0.13129  0.96231  0.98307  1.0000
  H   H90       1.0  0.86951  0.95673  0.50866  1.0000
  H   H91       1.0  0.86882  0.03698  0.99295  1.0000
  H   H92       1.0  0.12981  0.04324  0.53558  1.0000
  H   H93       1.0  0.63069  0.54066  0.99076  1.0000
  H   H94       1.0  0.63014  0.46152  0.50614  1.0000
  H   H95       1.0  0.36968  0.45819  0.99628  1.0000
  H   H96       1.0  0.36863  0.54025  0.52188  1.0000
  C  Sn1       1.0  0.75567  0.28711  0.58242  1.0000
  C   C169      1.0  0.73053  0.28602  0.48335  1.0000
  C  Sn2       1.0  0.72889  0.25362  0.39644  1.0000
  C  Sn3       1.0  0.75286  0.22163  0.40886  1.0000
  C   C170      1.0  0.77797  0.22272  0.50789  1.0000
  C  Sn4       1.0  0.77963  0.25512  0.59483  1.0000
  O  Te1       1.0  0.75683  0.31980  0.66820  1.0000
  O  Te2       1.0  0.70354  0.25320  0.29816  1.0000
  O  Te3       1.0  0.75168  0.18892  0.32296  1.0000
  O  Te4       1.0  0.80496  0.25554  0.69308  1.0000
  Mg  Mg1       1.0  0.71242  0.20208  0.20515  1.0000
  Mg  Mg2       1.0  0.79610  0.30663  0.78617  1.0000
  C  Sn5       1.0  0.89148  0.83160  0.45618  1.0000
  C   C171      1.0  0.86657  0.83004  0.55062  1.0000
  C  Sn6       1.0  0.86165  0.86292  0.63302  1.0000
  C  Sn7       1.0  0.88204  0.89811  0.62074  1.0000
  C   C172      1.0  0.90693  0.89966  0.52634  1.0000
  C  Sn8       1.0  0.91187  0.86679  0.44389  1.0000
  O  Te5       1.0  0.89596  0.79836  0.37484  1.0000
  O  Te6       1.0  0.83660  0.86065  0.72673  1.0000
  O  Te7       1.0  0.87755  0.93135  0.70219  1.0000
  O  Te8       1.0  0.93690  0.86905  0.35023  1.0000
  Mg  Mg3       1.0  0.84015  0.91375  0.81469  1.0000
  Mg  Mg4       1.0  0.93336  0.81597  0.26217  1.0000
  C  Sn9       1.0  0.62669  0.40340  0.62697  1.0000
  C   C173      1.0  0.59987  0.40385  0.53440  1.0000
  C  Sn10      1.0  0.59419  0.37071  0.45249  1.0000
  C  Sn11      1.0  0.61575  0.33640  0.46338  1.0000
  C   C174      1.0  0.64255  0.33596  0.55593  1.0000
  C  Sn12      1.0  0.64825  0.36909  0.63787  1.0000
  O  Te9       1.0  0.63190  0.43686  0.70784  1.0000
  O  Te10      1.0  0.56722  0.37187  0.36066  1.0000
  O  Te11      1.0  0.61052  0.30293  0.38241  1.0000
  O  Te12      1.0  0.67520  0.36794  0.72967  1.0000
  Mg  Mg5       1.0  0.57043  0.31887  0.27264  1.0000
  Mg  Mg6       1.0  0.67200  0.42091  0.81777  1.0000
  C  Sn13      1.0  0.37346  0.40093  0.38608  1.0000
  C   C175      1.0  0.39979  0.40143  0.48066  1.0000
  C  Sn14      1.0  0.40573  0.36777  0.55891  1.0000
  C  Sn15      1.0  0.38494  0.33287  0.54223  1.0000
  C   C176      1.0  0.35863  0.33237  0.44769  1.0000
  C  Sn16      1.0  0.35266  0.36603  0.36940  1.0000
  O  Te13      1.0  0.36797  0.43492  0.30894  1.0000
  O  Te14      1.0  0.43221  0.36900  0.65284  1.0000
  O  Te15      1.0  0.39045  0.29887  0.61947  1.0000
  O  Te16      1.0  0.32621  0.36481  0.27551  1.0000
  Mg  Mg7       1.0  0.42963  0.31514  0.73411  1.0000
  Mg  Mg8       1.0  0.32878  0.41864  0.19414  1.0000
  C  Sn17      1.0  0.62719  0.62986  0.82501  1.0000
  C   C177      1.0  0.63738  0.66088  0.90980  1.0000
  C  Sn18      1.0  0.61747  0.66087  0.03521  1.0000
  C  Sn19      1.0  0.59444  0.63073  0.07679  1.0000
  C   C178      1.0  0.59180  0.60124  0.99204  1.0000
  C  Sn20      1.0  0.60416  0.59972  0.86659  1.0000
  O  Te17      1.0  0.63989  0.62895  0.70008  1.0000
  O  Te18      1.0  0.62802  0.69219  0.11821  1.0000
  O  Te19      1.0  0.58174  0.63166  0.20184  1.0000
  O  Te20      1.0  0.59363  0.56842  0.78363  1.0000
  Mg  Mg9       1.0  0.60365  0.68036  0.27918  1.0000
  Mg  Mg10      1.0  0.61799  0.58020  0.62267  1.0000
  C  Sn21      1.0  0.40495  0.64981  0.45334  1.0000
  C   C179      1.0  0.41337  0.61847  0.53839  1.0000
  C  Sn22      1.0  0.38971  0.60516  0.62783  1.0000
  C  Sn23      1.0  0.35694  0.62354  0.63231  1.0000
  C   C180      1.0  0.34852  0.65485  0.54728  1.0000
  C  Sn24      1.0  0.37217  0.66818  0.45781  1.0000
  O  Te21      1.0  0.42900  0.66263  0.36471  1.0000
  O  Te22      1.0  0.39872  0.57379  0.71190  1.0000
  O  Te23      1.0  0.33288  0.61069  0.72103  1.0000
  O  Te24      1.0  0.36317  0.69953  0.37376  1.0000
  Mg  Mg11      1.0  0.35717  0.56692  0.81536  1.0000
  Mg  Mg12      1.0  0.40470  0.70641  0.27023  1.0000
  C  Sn25      1.0  0.89098  0.83209  0.95924  1.0000
  C   C181      1.0  0.85832  0.82939  0.05295  1.0000
  C  Sn26      1.0  0.85352  0.86240  0.13495  1.0000
  C  Sn27      1.0  0.87424  0.89734  0.12301  1.0000
  C   C182      1.0  0.89934  0.89851  0.02934  1.0000
  C  Sn28      1.0  0.91170  0.86702  0.94730  1.0000
  O  Te25      1.0  0.89533  0.79874  0.87829  1.0000
  O  Te26      1.0  0.82825  0.86051  0.22792  1.0000
  O  Te27      1.0  0.86987  0.93070  0.20406  1.0000
  O  Te28      1.0  0.93694  0.86891  0.85437  1.0000
  Mg  Mg13      1.0  0.83209  0.91364  0.31558  1.0000
  Mg  Mg14      1.0  0.93311  0.81581  0.76662  1.0000
  C  Sn29      1.0  0.72906  0.22974  0.90191  1.0000
  C   C183      1.0  0.71805  0.26104  0.98166  1.0000
  C  Sn30      1.0  0.73348  0.27828  0.06910  1.0000
  C  Sn31      1.0  0.76818  0.26550  0.07695  1.0000
  C   C184      1.0  0.78670  0.23575  0.99723  1.0000
  C  Sn32      1.0  0.76376  0.21697  0.90977  1.0000
  O  Te29      1.0  0.70567  0.21143  0.81520  1.0000
  O  Te30      1.0  0.72187  0.30949  0.14785  1.0000
  O  Te31      1.0  0.79157  0.28385  0.16376  1.0000
  O  Te32      1.0  0.77535  0.18578  0.83103  1.0000
  Mg  Mg15      1.0  0.76349  0.32505  0.25056  1.0000
  Mg  Mg16      1.0  0.73376  0.17021  0.72825  1.0000
  C  Sn33      1.0  0.10358  0.13561  0.41998  1.0000
  C   C185      1.0  0.09511  0.10594  0.50928  1.0000
  C  Sn34      1.0  0.10912  0.10710  0.63512  1.0000
  C  Sn35      1.0  0.13206  0.13858  0.67252  1.0000
  C   C186      1.0  0.14052  0.16824  0.58326  1.0000
  C  Sn36      1.0  0.12652  0.16710  0.45738  1.0000
  O  Te33      1.0  0.08926  0.13385  0.29471  1.0000
  O  Te34      1.0  0.10027  0.07709  0.72267  1.0000
  O  Te35      1.0  0.14638  0.14032  0.79791  1.0000
  O  Te36      1.0  0.13535  0.19708  0.36987  1.0000
  Mg  Mg17      1.0  0.12646  0.09254  0.88224  1.0000
  Mg  Mg18      1.0  0.10917  0.18168  0.21030  1.0000
  C  Sn37      1.0  0.27099  0.77063  0.90624  1.0000
  C   C187      1.0  0.28297  0.73892  0.98373  1.0000
  C  Sn38      1.0  0.25359  0.71836  0.06924  1.0000
  C  Sn39      1.0  0.21905  0.73126  0.07742  1.0000
  C   C188      1.0  0.21462  0.76447  0.99994  1.0000
  C  Sn40      1.0  0.23646  0.78354  0.91441  1.0000
  O  Te37      1.0  0.29329  0.78923  0.82143  1.0000
  O  Te38      1.0  0.26615  0.68672  0.14577  1.0000
  O  Te39      1.0  0.19676  0.71263  0.16232  1.0000
  O  Te40      1.0  0.22391  0.81515  0.83790  1.0000
  Mg  Mg19      1.0  0.22586  0.67090  0.24642  1.0000
  Mg  Mg20      1.0  0.26417  0.83098  0.73717  1.0000
  C  Sn41      1.0  0.59445  0.35007  0.95308  1.0000
  C   C189      1.0  0.57938  0.38029  0.03707  1.0000
  C  Sn42      1.0  0.60417  0.39448  0.12638  1.0000
  C  Sn43      1.0  0.63720  0.37659  0.13181  1.0000
  C   C190      1.0  0.64473  0.34488  0.04784  1.0000
  C  Sn44      1.0  0.62748  0.33219  0.95851  1.0000
  O  Te41      1.0  0.56927  0.33638  0.86456  1.0000
  O  Te42      1.0  0.59603  0.42623  0.20938  1.0000
  O  Te43      1.0  0.66238  0.39031  0.22042  1.0000
  O  Te44      1.0  0.63561  0.30046  0.87553  1.0000
  Mg  Mg21      1.0  0.63898  0.43431  0.31312  1.0000
  Mg  Mg22      1.0  0.59269  0.29237  0.77171  1.0000
  C  Sn45      1.0  0.37410  0.59766  0.12158  1.0000
  C   C191      1.0  0.40052  0.59713  0.03300  1.0000
  C  Sn46      1.0  0.41366  0.63193  0.95387  1.0000
  C  Sn47      1.0  0.39244  0.66647  0.96353  1.0000
  C   C192      1.0  0.35852  0.66547  0.05208  1.0000
  C  Sn48      1.0  0.35288  0.63220  0.13124  1.0000
  O  Te45      1.0  0.36896  0.56405  0.19972  1.0000
  O  Te46      1.0  0.44022  0.63069  0.86601  1.0000
  O  Te47      1.0  0.39760  0.70009  0.88528  1.0000
  O  Te48      1.0  0.32634  0.63343  0.21906  1.0000
  Mg  Mg23      1.0  0.43708  0.68396  0.78060  1.0000
  Mg  Mg24      1.0  0.32948  0.58019  0.30457  1.0000
