data_image0
_chemical_formula_structural       C5H2NC4HOCH4C5H2NC4HOCH4C5H2NC4HOCH4C5H2NC4HOCH4C5H2NC4HOCH4C5H2NC4HOCH4C5H2NC4HOCH4C5H2NC4HOCH4N8Co2C5H2NC4HOCH4C5H2NC4HOCH4C5H2NC4HOCH4C5H2NC4HOCH4C5H2NC4HOCH4C5H2NC4HOCH4C5H2NC4HOCH4C5H2NC4HOCH4N8Co2SnCSn2CSnTe4Mg2SnCSn2CSnTe4Mg2SnCSn2CSnTe4Mg2SnCSn2CSnTe4Mg2SnCSn2CSnTe4Mg2SnCSn2CSnTe4Mg2SnCSn2CSnTe4Mg2SnCSn2CSnTe4Mg2SnCSn2CSnTe4Mg2SnCSn2CSnTe4Mg2SnCSn2CSnTe4Mg2SnCSn2CSnTe4Mg2SnCSn2CSnTe4Mg2SnCSn2CSnTe4Mg2SnCSn2CSnTe4Mg2SnCSn2CSnTe4Mg2
_chemical_formula_sum              "C192 H112 N32 O16 Co4 Sn64 Te64 Mg32"
_cell_length_a       40.4436
_cell_length_b       30.7693
_cell_length_c       9.48305
_cell_angle_alpha    89.8286
_cell_angle_beta     90.043
_cell_angle_gamma    89.9804

_symmetry_space_group_name_H-M    'P1'
_space_group_IT_number       1

loop_
  _space_group_symop_operation_xyz
  'x, y, z'

loop_
  _atom_site_type_symbol
  _atom_site_label
  _atom_site_symmetry_multiplicity
  _atom_site_fract_x
  _atom_site_fract_y
  _atom_site_fract_z
  _atom_site_occupancy
  C   C1        1.0  0.47563  0.40667  0.24624  1.0000
  C   C2        1.0  0.44230  0.41984  0.23844  1.0000
  C   C3        1.0  0.43177  0.46339  0.25379  1.0000
  C   C4        1.0  0.48668  0.36214  0.24770  1.0000
  C   C5        1.0  0.39765  0.47643  0.26522  1.0000
  H   H1        1.0  0.47110  0.33393  0.23385  1.0000
  H   H2        1.0  0.37661  0.45479  0.26440  1.0000
  N   N1        1.0  0.32817  0.31221  0.18401  1.0000
  C   C6        1.0  0.31781  0.28548  0.28052  1.0000
  C   C7        1.0  0.28455  0.26741  0.27226  1.0000
  C   C8        1.0  0.26138  0.28532  0.17772  1.0000
  C   C9        1.0  0.27453  0.23261  0.36126  1.0000
  H   H3        1.0  0.33234  0.27638  0.37375  1.0000
  O   O1        1.0  0.29856  0.21442  0.44439  1.0000
  C   C10       1.0  0.21203  0.67158  0.52818  1.0000
  H   H4        1.0  0.27009  0.31177  0.11148  1.0000
  H   H5        1.0  0.23182  0.68257  0.59903  1.0000
  H   H6        1.0  0.22051  0.64329  0.46746  1.0000
  H   H7        1.0  0.19020  0.66288  0.59043  1.0000
  C   C11       1.0  0.52779  0.59448  0.23040  1.0000
  C   C12       1.0  0.56111  0.58122  0.22351  1.0000
  C   C13       1.0  0.57182  0.53786  0.24308  1.0000
  C   C14       1.0  0.51662  0.63892  0.22321  1.0000
  C   C15       1.0  0.60600  0.52493  0.25334  1.0000
  H   H8        1.0  0.53211  0.66687  0.20244  1.0000
  H   H9        1.0  0.62703  0.54657  0.24933  1.0000
  N   N2        1.0  0.67451  0.68959  0.16183  1.0000
  C   C16       1.0  0.68440  0.71723  0.25604  1.0000
  C   C17       1.0  0.71751  0.73557  0.24737  1.0000
  C   C18       1.0  0.74073  0.71770  0.15354  1.0000
  C   C19       1.0  0.72744  0.77028  0.33632  1.0000
  H   H10       1.0  0.66968  0.72675  0.34795  1.0000
  O   O2        1.0  0.70340  0.78777  0.42083  1.0000
  C   C20       1.0  0.78827  0.32227  0.52246  1.0000
  H   H11       1.0  0.73208  0.69129  0.08745  1.0000
  H   H12       1.0  0.76766  0.31179  0.58996  1.0000
  H   H13       1.0  0.78103  0.35133  0.46201  1.0000
  H   H14       1.0  0.80984  0.32954  0.58815  1.0000
  C   C21       1.0  0.53006  0.40771  0.27407  1.0000
  C   C22       1.0  0.56304  0.42216  0.28413  1.0000
  C   C23       1.0  0.57272  0.46618  0.27280  1.0000
  C   C24       1.0  0.52006  0.36273  0.27131  1.0000
  C   C25       1.0  0.60658  0.48076  0.26894  1.0000
  H   H15       1.0  0.53624  0.33503  0.28435  1.0000
  H   H16       1.0  0.62820  0.46021  0.27640  1.0000
  N   N3        1.0  0.67652  0.31273  0.33367  1.0000
  C   C26       1.0  0.68514  0.28205  0.24747  1.0000
  C   C27       1.0  0.71843  0.26421  0.25451  1.0000
  C   C28       1.0  0.74192  0.28351  0.34418  1.0000
  C   C29       1.0  0.72836  0.22899  0.16756  1.0000
  H   H17       1.0  0.66915  0.26931  0.16387  1.0000
  O   O3        1.0  0.70415  0.21023  0.08660  1.0000
  C   C30       1.0  0.78701  0.67960  0.97345  1.0000
  H   H18       1.0  0.73327  0.31054  0.40757  1.0000
  H   H19       1.0  0.76683  0.68980  0.90312  1.0000
  H   H20       1.0  0.77931  0.65101  0.03516  1.0000
  H   H21       1.0  0.80889  0.67170  0.91051  1.0000
  C   C31       1.0  0.47347  0.59381  0.26315  1.0000
  C   C32       1.0  0.44067  0.57936  0.28177  1.0000
  C   C33       1.0  0.43104  0.53523  0.27672  1.0000
  C   C34       1.0  0.48333  0.63863  0.24918  1.0000
  C   C35       1.0  0.39716  0.52066  0.27704  1.0000
  H   H22       1.0  0.46709  0.66646  0.25638  1.0000
  H   H23       1.0  0.37558  0.54127  0.28387  1.0000
  N   N4        1.0  0.32457  0.68367  0.33571  1.0000
  C   C36       1.0  0.31436  0.71251  0.24523  1.0000
  C   C37       1.0  0.28079  0.72945  0.25315  1.0000
  C   C38       1.0  0.25775  0.71059  0.34622  1.0000
  C   C39       1.0  0.27017  0.76412  0.16441  1.0000
  H   H24       1.0  0.32937  0.72452  0.15719  1.0000
  O   O4        1.0  0.29368  0.78262  0.07935  1.0000
  C   C40       1.0  0.21505  0.32275  0.99546  1.0000
  H   H25       1.0  0.26665  0.68415  0.41203  1.0000
  H   H26       1.0  0.23525  0.31312  0.92469  1.0000
  H   H27       1.0  0.22273  0.35086  0.05869  1.0000
  H   H28       1.0  0.19318  0.33108  0.93286  1.0000
  C   C41       1.0  0.02984  0.09356  0.27431  1.0000
  C   C42       1.0  0.06289  0.07905  0.27896  1.0000
  C   C43       1.0  0.07245  0.03527  0.25961  1.0000
  C   C44       1.0  0.01975  0.13845  0.27938  1.0000
  C   C45       1.0  0.10621  0.02117  0.24363  1.0000
  H   H29       1.0  0.03583  0.16584  0.29925  1.0000
  H   H30       1.0  0.12764  0.04217  0.24210  1.0000
  N   N5        1.0  0.17660  0.18749  0.34049  1.0000
  C   C46       1.0  0.18628  0.21607  0.24843  1.0000
  C   C47       1.0  0.21906  0.23526  0.26011  1.0000
  C   C48       1.0  0.24214  0.21762  0.35556  1.0000
  C   C49       1.0  0.22901  0.27008  0.17108  1.0000
  H   H31       1.0  0.17173  0.22563  0.15574  1.0000
  O   O5        1.0  0.20507  0.28756  0.08564  1.0000
  C   C50       1.0  0.28336  0.81819  0.99155  1.0000
  H   H32       1.0  0.23346  0.19118  0.42188  1.0000
  H   H33       1.0  0.26388  0.80825  0.91753  1.0000
  H   H34       1.0  0.27459  0.84564  0.05550  1.0000
  H   H35       1.0  0.30540  0.82774  0.93223  1.0000
  C   C51       1.0  0.97313  0.90819  0.26986  1.0000
  C   C52       1.0  0.94016  0.92267  0.27959  1.0000
  C   C53       1.0  0.93050  0.96667  0.26868  1.0000
  C   C54       1.0  0.98297  0.86318  0.26602  1.0000
  C   C55       1.0  0.89664  0.98125  0.26387  1.0000
  H   H36       1.0  0.96657  0.83566  0.27767  1.0000
  H   H37       1.0  0.87504  0.96068  0.27078  1.0000
  N   N6        1.0  0.82598  0.81404  0.32077  1.0000
  C   C56       1.0  0.81638  0.78555  0.22865  1.0000
  C   C57       1.0  0.78315  0.76737  0.23681  1.0000
  C   C58       1.0  0.75981  0.78546  0.32996  1.0000
  C   C59       1.0  0.77318  0.73251  0.14836  1.0000
  H   H38       1.0  0.83152  0.77484  0.13941  1.0000
  O   O6        1.0  0.79705  0.71445  0.06441  1.0000
  C   C60       1.0  0.71421  0.17599  0.99343  1.0000
  H   H39       1.0  0.76847  0.81208  0.39520  1.0000
  H   H40       1.0  0.73414  0.18684  0.92300  1.0000
  H   H41       1.0  0.72229  0.14718  0.05324  1.0000
  H   H42       1.0  0.69224  0.16824  0.93084  1.0000
  C   C61       1.0  0.97547  0.09510  0.24335  1.0000
  C   C62       1.0  0.94223  0.08197  0.22948  1.0000
  C   C63       1.0  0.93146  0.03841  0.24181  1.0000
  C   C64       1.0  0.98650  0.13952  0.25315  1.0000
  C   C65       1.0  0.89722  0.02545  0.24909  1.0000
  H   H43       1.0  0.97106  0.16805  0.24300  1.0000
  H   H44       1.0  0.87617  0.04704  0.24405  1.0000
  N   N7        1.0  0.82832  0.18982  0.17339  1.0000
  C   C66       1.0  0.81806  0.21709  0.26795  1.0000
  C   C67       1.0  0.78453  0.23422  0.26097  1.0000
  C   C68       1.0  0.76107  0.21491  0.17108  1.0000
  C   C69       1.0  0.77450  0.26922  0.34836  1.0000
  H   H45       1.0  0.83283  0.22736  0.35895  1.0000
  O   O7        1.0  0.79855  0.28794  0.42984  1.0000
  C   C70       1.0  0.71312  0.82322  0.50974  1.0000
  H   H46       1.0  0.76985  0.18830  0.10612  1.0000
  H   H47       1.0  0.72046  0.85154  0.44612  1.0000
  H   H48       1.0  0.69126  0.83110  0.57268  1.0000
  H   H49       1.0  0.73347  0.81386  0.58029  1.0000
  C   C71       1.0  0.02754  0.90691  0.24129  1.0000
  C   C72       1.0  0.06081  0.91987  0.22770  1.0000
  C   C73       1.0  0.07158  0.96353  0.23413  1.0000
  C   C74       1.0  0.01637  0.86241  0.24325  1.0000
  C   C75       1.0  0.10574  0.97694  0.23056  1.0000
  H   H50       1.0  0.03188  0.83411  0.22926  1.0000
  H   H51       1.0  0.12684  0.95567  0.21954  1.0000
  N   N8        1.0  0.17221  0.80698  0.18270  1.0000
  C   C76       1.0  0.18129  0.77735  0.27251  1.0000
  C   C77       1.0  0.21461  0.75954  0.26422  1.0000
  C   C78       1.0  0.23757  0.77829  0.17061  1.0000
  C   C79       1.0  0.22510  0.72470  0.35212  1.0000
  H   H52       1.0  0.16579  0.76564  0.35946  1.0000
  O   O8        1.0  0.20145  0.70598  0.43599  1.0000
  C   C80       1.0  0.28897  0.17860  0.53276  1.0000
  H   H53       1.0  0.22845  0.80468  0.10496  1.0000
  H   H54       1.0  0.26939  0.18806  0.60689  1.0000
  H   H55       1.0  0.28058  0.15094  0.46878  1.0000
  H   H56       1.0  0.31126  0.16972  0.59188  1.0000
  N   N9        1.0  0.50100  0.56717  0.25191  1.0000
  N   N10       1.0  0.50253  0.43423  0.26033  1.0000
  N   N11       1.0  0.00073  0.93458  0.25670  1.0000
  N   N12       1.0  0.00233  0.06734  0.25546  1.0000
  N   N13       1.0  0.45193  0.49973  0.26284  1.0000
  N   N14       1.0  0.55175  0.50159  0.25718  1.0000
  N   N15       1.0  0.05150  0.99972  0.25130  1.0000
  N   N16       1.0  0.95150  0.00206  0.25490  1.0000
  Co  Co1       1.0  0.50193  0.50077  0.25785  1.0000
  Co  Co2       1.0  0.00148  0.00092  0.25617  1.0000
  C   C81       1.0  0.47116  0.40721  0.72534  1.0000
  C   C82       1.0  0.43814  0.42139  0.71292  1.0000
  C   C83       1.0  0.42824  0.46537  0.72141  1.0000
  C   C84       1.0  0.48134  0.36234  0.73300  1.0000
  C   C85       1.0  0.39431  0.47977  0.72147  1.0000
  H   H57       1.0  0.46525  0.33446  0.72272  1.0000
  H   H58       1.0  0.37282  0.45916  0.71095  1.0000
  N   N17       1.0  0.32352  0.31394  0.67787  1.0000
  C   C86       1.0  0.31475  0.28372  0.76608  1.0000
  C   C87       1.0  0.28115  0.26682  0.76160  1.0000
  C   C88       1.0  0.25778  0.28633  0.67147  1.0000
  C   C89       1.0  0.27098  0.23171  0.84908  1.0000
  H   H59       1.0  0.33092  0.27044  0.84838  1.0000
  O   O9        1.0  0.29509  0.21238  0.92934  1.0000
  C   C90       1.0  0.21247  0.67585  0.01803  1.0000
  H   H60       1.0  0.26666  0.31293  0.60631  1.0000
  H   H61       1.0  0.23173  0.68628  0.09235  1.0000
  H   H62       1.0  0.22168  0.64845  0.95508  1.0000
  H   H63       1.0  0.19042  0.66591  0.07668  1.0000
  C   C91       1.0  0.52677  0.59377  0.73241  1.0000
  C   C92       1.0  0.55974  0.57961  0.71705  1.0000
  C   C93       1.0  0.56968  0.53560  0.72428  1.0000
  C   C94       1.0  0.51661  0.63850  0.74568  1.0000
  C   C95       1.0  0.60365  0.52139  0.72730  1.0000
  H   H64       1.0  0.53263  0.66652  0.73807  1.0000
  H   H65       1.0  0.62506  0.54233  0.72112  1.0000
  N   N18       1.0  0.67299  0.68919  0.66339  1.0000
  C   C96       1.0  0.68220  0.71866  0.75301  1.0000
  C   C97       1.0  0.71550  0.73643  0.74576  1.0000
  C   C98       1.0  0.73885  0.71756  0.65465  1.0000
  C   C99       1.0  0.72558  0.77130  0.83377  1.0000
  H   H66       1.0  0.66669  0.73045  0.83958  1.0000
  O   O10       1.0  0.70151  0.79012  0.91485  1.0000
  C   C100      1.0  0.78260  0.31936  0.00881  1.0000
  H   H67       1.0  0.73001  0.69111  0.58923  1.0000
  H   H68       1.0  0.76254  0.30802  0.07769  1.0000
  H   H69       1.0  0.77437  0.34801  0.94869  1.0000
  H   H70       1.0  0.80417  0.32764  0.07317  1.0000
  C   C101      1.0  0.52557  0.40673  0.75447  1.0000
  C   C102      1.0  0.55885  0.42009  0.76316  1.0000
  C   C103      1.0  0.56931  0.46371  0.74859  1.0000
  C   C104      1.0  0.51470  0.36212  0.75702  1.0000
  C   C105      1.0  0.60342  0.47711  0.74015  1.0000
  H   H71       1.0  0.53042  0.33416  0.77441  1.0000
  H   H72       1.0  0.62464  0.45575  0.74357  1.0000
  N   N19       1.0  0.67085  0.30805  0.82064  1.0000
  C   C106      1.0  0.67987  0.27782  0.73342  1.0000
  C   C107      1.0  0.71328  0.26015  0.74114  1.0000
  C   C108      1.0  0.73659  0.27960  0.83145  1.0000
  C   C109      1.0  0.72366  0.22523  0.65369  1.0000
  H   H73       1.0  0.66427  0.26549  0.64783  1.0000
  O   O11       1.0  0.69986  0.20604  0.57163  1.0000
  C   C110      1.0  0.78526  0.67848  0.47750  1.0000
  H   H74       1.0  0.72761  0.30637  0.89515  1.0000
  H   H75       1.0  0.76626  0.69002  0.40347  1.0000
  H   H76       1.0  0.77582  0.65045  0.53743  1.0000
  H   H77       1.0  0.80749  0.66920  0.41895  1.0000
  C   C111      1.0  0.47241  0.59388  0.76424  1.0000
  C   C112      1.0  0.43913  0.58041  0.77093  1.0000
  C   C113      1.0  0.42868  0.53700  0.75067  1.0000
  C   C114      1.0  0.48334  0.63838  0.77188  1.0000
  C   C115      1.0  0.39460  0.52390  0.73710  1.0000
  H   H78       1.0  0.46779  0.66613  0.79400  1.0000
  H   H79       1.0  0.37341  0.54534  0.73893  1.0000
  N   N20       1.0  0.32549  0.68861  0.83329  1.0000
  C   C116      1.0  0.31499  0.71525  0.73673  1.0000
  C   C117      1.0  0.28167  0.73309  0.74511  1.0000
  C   C118      1.0  0.25860  0.71486  0.83919  1.0000
  C   C119      1.0  0.27140  0.76764  0.65562  1.0000
  H   H80       1.0  0.32932  0.72397  0.64266  1.0000
  O   O12       1.0  0.29527  0.78567  0.57140  1.0000
  C   C120      1.0  0.21157  0.32643  0.49491  1.0000
  H   H81       1.0  0.26755  0.68859  0.90573  1.0000
  H   H82       1.0  0.23048  0.31563  0.41946  1.0000
  H   H83       1.0  0.22114  0.35382  0.55701  1.0000
  H   H84       1.0  0.18931  0.33647  0.43768  1.0000
  C   C121      1.0  0.02604  0.09409  0.74812  1.0000
  C   C122      1.0  0.05899  0.08036  0.76776  1.0000
  C   C123      1.0  0.06929  0.03647  0.76452  1.0000
  C   C124      1.0  0.01561  0.13879  0.73726  1.0000
  C   C125      1.0  0.10330  0.02248  0.77095  1.0000
  H   H85       1.0  0.03154  0.16681  0.74760  1.0000
  H   H86       1.0  0.12459  0.04342  0.78212  1.0000
  N   N21       1.0  0.17213  0.18927  0.83114  1.0000
  C   C126      1.0  0.18147  0.22006  0.74615  1.0000
  C   C127      1.0  0.21490  0.23731  0.75470  1.0000
  C   C128      1.0  0.23825  0.21786  0.84533  1.0000
  C   C129      1.0  0.22512  0.27244  0.66742  1.0000
  H   H87       1.0  0.16582  0.23351  0.66230  1.0000
  O   O13       1.0  0.20125  0.29148  0.58531  1.0000
  C   C130      1.0  0.28539  0.82062  0.47995  1.0000
  H   H88       1.0  0.22947  0.19111  0.91015  1.0000
  H   H89       1.0  0.26520  0.81056  0.40961  1.0000
  H   H90       1.0  0.27777  0.84922  0.54128  1.0000
  H   H91       1.0  0.30735  0.82838  0.41722  1.0000
  C   C131      1.0  0.97181  0.90716  0.75961  1.0000
  C   C132      1.0  0.93863  0.92096  0.76674  1.0000
  C   C133      1.0  0.92846  0.96462  0.75024  1.0000
  C   C134      1.0  0.98234  0.86243  0.76159  1.0000
  C   C135      1.0  0.89442  0.97820  0.74032  1.0000
  H   H92       1.0  0.96641  0.83460  0.77729  1.0000
  H   H93       1.0  0.87313  0.95700  0.74395  1.0000
  N   N22       1.0  0.82469  0.81284  0.82199  1.0000
  C   C136      1.0  0.81476  0.78469  0.72942  1.0000
  C   C137      1.0  0.78154  0.76669  0.73850  1.0000
  C   C138      1.0  0.75825  0.78539  0.83034  1.0000
  C   C139      1.0  0.77147  0.73171  0.65090  1.0000
  H   H94       1.0  0.82949  0.77447  0.63833  1.0000
  O   O14       1.0  0.79557  0.71262  0.57067  1.0000
  C   C140      1.0  0.71012  0.17074  0.48302  1.0000
  H   H95       1.0  0.76707  0.81189  0.89573  1.0000
  H   H96       1.0  0.72855  0.18146  0.40520  1.0000
  H   H97       1.0  0.72024  0.14384  0.54631  1.0000
  H   H98       1.0  0.68769  0.16003  0.42845  1.0000
  C   C141      1.0  0.97173  0.09381  0.71496  1.0000
  C   C142      1.0  0.93857  0.08001  0.70664  1.0000
  C   C143      1.0  0.92839  0.03627  0.72098  1.0000
  C   C144      1.0  0.98229  0.13854  0.71158  1.0000
  C   C145      1.0  0.89436  0.02236  0.72519  1.0000
  H   H99       1.0  0.96641  0.16628  0.69296  1.0000
  H   H100      1.0  0.87298  0.04330  0.71727  1.0000
  N   N23       1.0  0.82329  0.18598  0.66383  1.0000
  C   C146      1.0  0.81330  0.21408  0.75626  1.0000
  C   C147      1.0  0.77968  0.23092  0.74880  1.0000
  C   C148      1.0  0.75644  0.21155  0.65805  1.0000
  C   C149      1.0  0.76934  0.26593  0.83560  1.0000
  H   H101      1.0  0.82831  0.22532  0.84532  1.0000
  O   O15       1.0  0.79334  0.28551  0.91534  1.0000
  C   C150      1.0  0.71195  0.82389  0.00922  1.0000
  H   H102      1.0  0.76546  0.18515  0.59284  1.0000
  H   H103      1.0  0.73117  0.81216  0.08187  1.0000
  H   H104      1.0  0.72115  0.85229  0.95052  1.0000
  H   H105      1.0  0.68992  0.83293  0.06939  1.0000
  C   C151      1.0  0.02633  0.90694  0.73458  1.0000
  C   C152      1.0  0.05954  0.92074  0.72874  1.0000
  C   C153      1.0  0.06950  0.96454  0.74347  1.0000
  C   C154      1.0  0.01575  0.86223  0.73946  1.0000
  C   C155      1.0  0.10337  0.97820  0.75991  1.0000
  H   H106      1.0  0.03164  0.83415  0.72934  1.0000
  H   H107      1.0  0.12460  0.95687  0.76340  1.0000
  N   N24       1.0  0.17281  0.81093  0.67307  1.0000
  C   C156      1.0  0.18292  0.78320  0.76714  1.0000
  C   C157      1.0  0.21586  0.76428  0.75605  1.0000
  C   C158      1.0  0.23892  0.78234  0.66150  1.0000
  C   C159      1.0  0.22603  0.72943  0.84483  1.0000
  H   H108      1.0  0.16869  0.77427  0.86131  1.0000
  O   O16       1.0  0.20208  0.71106  0.92836  1.0000
  C   C160      1.0  0.28475  0.17897  0.02588  1.0000
  H   H109      1.0  0.23017  0.80888  0.59569  1.0000
  H   H110      1.0  0.26549  0.19093  0.09757  1.0000
  H   H111      1.0  0.27568  0.15019  0.96921  1.0000
  H   H112      1.0  0.30685  0.17051  0.08687  1.0000
  N   N25       1.0  0.49938  0.56688  0.74267  1.0000
  N   N26       1.0  0.49857  0.43401  0.73707  1.0000
  N   N27       1.0  0.99906  0.93411  0.74453  1.0000
  N   N28       1.0  0.99888  0.06696  0.73481  1.0000
  N   N29       1.0  0.44899  0.50089  0.73856  1.0000
  N   N30       1.0  0.54897  0.49987  0.73709  1.0000
  N   N31       1.0  0.04892  0.00055  0.74808  1.0000
  N   N32       1.0  0.94896  0.00052  0.73717  1.0000
  Co  Co3       1.0  0.49903  0.50057  0.73620  1.0000
  Co  Co4       1.0  0.99902  0.00073  0.73919  1.0000
  C  Sn1       1.0  0.37352  0.36800  0.06907  1.0000
  C   C161      1.0  0.36484  0.33253  0.15364  1.0000
  C  Sn2       1.0  0.38092  0.32525  0.28198  1.0000
  C  Sn3       1.0  0.40619  0.35404  0.32678  1.0000
  C   C162      1.0  0.41485  0.38949  0.24225  1.0000
  C  Sn4       1.0  0.39879  0.39679  0.11388  1.0000
  O  Te1       1.0  0.35729  0.37373  0.94117  1.0000
  O  Te2       1.0  0.37182  0.28956  0.36469  1.0000
  O  Te3       1.0  0.42259  0.34736  0.45480  1.0000
  O  Te4       1.0  0.40787  0.43246  0.03120  1.0000
  Mg  Mg1       1.0  0.40139  0.29423  0.53044  1.0000
  Mg  Mg2       1.0  0.37849  0.42692  0.86548  1.0000
  C  Sn5       1.0  0.61685  0.66725  0.30744  1.0000
  C   C163      1.0  0.64263  0.66468  0.20974  1.0000
  C  Sn6       1.0  0.63970  0.63821  0.09097  1.0000
  C  Sn7       1.0  0.61039  0.61382  0.06934  1.0000
  C   C164      1.0  0.58463  0.61640  0.16699  1.0000
  C  Sn8       1.0  0.58754  0.64286  0.28581  1.0000
  O  Te5       1.0  0.62032  0.69392  0.42543  1.0000
  O  Te6       1.0  0.66598  0.63524  0.99479  1.0000
  O  Te7       1.0  0.60712  0.58621  0.95124  1.0000
  O  Te8       1.0  0.56146  0.64492  0.38194  1.0000
  Mg  Mg3       1.0  0.64950  0.59428  0.85029  1.0000
  Mg  Mg4       1.0  0.57790  0.68589  0.52643  1.0000
  C  Sn9       1.0  0.59396  0.33900  0.23122  1.0000
  C   C165      1.0  0.58658  0.37551  0.31267  1.0000
  C  Sn10      1.0  0.61081  0.39439  0.39780  1.0000
  C  Sn11      1.0  0.64310  0.37641  0.40153  1.0000
  C   C166      1.0  0.65047  0.33993  0.32010  1.0000
  C  Sn12      1.0  0.62625  0.32103  0.23495  1.0000
  O  Te9       1.0  0.56935  0.32066  0.14687  1.0000
  O  Te10      1.0  0.60284  0.43086  0.47833  1.0000
  O  Te11      1.0  0.66771  0.39478  0.48597  1.0000
  O  Te12      1.0  0.63421  0.28457  0.15444  1.0000
  Mg  Mg5       1.0  0.64482  0.44423  0.57655  1.0000
  Mg  Mg6       1.0  0.59225  0.27120  0.05613  1.0000
  C  Sn13      1.0  0.40729  0.66115  0.22491  1.0000
  C   C167      1.0  0.41663  0.62612  0.31023  1.0000
  C  Sn14      1.0  0.39384  0.60691  0.40180  1.0000
  C  Sn15      1.0  0.36102  0.62304  0.40817  1.0000
  C   C168      1.0  0.35169  0.65804  0.32287  1.0000
  C  Sn16      1.0  0.37447  0.67727  0.23128  1.0000
  O  Te13      1.0  0.43049  0.67984  0.13414  1.0000
  O  Te14      1.0  0.40376  0.57194  0.48610  1.0000
  O  Te15      1.0  0.33782  0.60431  0.49904  1.0000
  O  Te16      1.0  0.36456  0.71222  0.14700  1.0000
  Mg  Mg7       1.0  0.36317  0.55738  0.59282  1.0000
  Mg  Mg8       1.0  0.40512  0.72679  0.04020  1.0000
  C  Sn17      1.0  0.11723  0.11276  0.43967  1.0000
  C   C169      1.0  0.09031  0.11711  0.34821  1.0000
  C  Sn18      1.0  0.09224  0.14466  0.23117  1.0000
  C  Sn19      1.0  0.12168  0.16835  0.20494  1.0000
  C   C170      1.0  0.14858  0.16400  0.29635  1.0000
  C  Sn20      1.0  0.14668  0.13646  0.41344  1.0000
  O  Te17      1.0  0.11476  0.08503  0.55603  1.0000
  O  Te18      1.0  0.06500  0.14848  0.14125  1.0000
  O  Te19      1.0  0.12413  0.19610  0.08847  1.0000
  O  Te20      1.0  0.17390  0.13263  0.50330  1.0000
  Mg  Mg9       1.0  0.08057  0.18943  0.99666  1.0000
  Mg  Mg10      1.0  0.15854  0.09074  0.64788  1.0000
  C  Sn21      1.0  0.89297  0.82461  0.22308  1.0000
  C   C171      1.0  0.86690  0.82585  0.31963  1.0000
  C  Sn22      1.0  0.86183  0.86259  0.40306  1.0000
  C  Sn23      1.0  0.88324  0.89886  0.38965  1.0000
  C   C172      1.0  0.90929  0.89761  0.29313  1.0000
  C  Sn24      1.0  0.91439  0.86088  0.20967  1.0000
  O  Te21      1.0  0.89758  0.78754  0.14076  1.0000
  O  Te22      1.0  0.83560  0.86306  0.49888  1.0000
  O  Te23      1.0  0.87861  0.93594  0.47208  1.0000
  O  Te24      1.0  0.94059  0.86039  0.11389  1.0000
  Mg  Mg11      1.0  0.83945  0.92102  0.58748  1.0000
  Mg  Mg12      1.0  0.93676  0.80246  0.02518  1.0000
  C  Sn25      1.0  0.89030  0.12035  0.06284  1.0000
  C   C173      1.0  0.91630  0.12285  0.15960  1.0000
  C  Sn26      1.0  0.91291  0.14720  0.28284  1.0000
  C  Sn27      1.0  0.88289  0.16949  0.30999  1.0000
  C   C174      1.0  0.85691  0.16698  0.21328  1.0000
  C  Sn28      1.0  0.86028  0.14265  0.08999  1.0000
  O  Te25      1.0  0.89441  0.09490  0.94033  1.0000
  O  Te26      1.0  0.93926  0.14922  0.37798  1.0000
  O  Te27      1.0  0.87897  0.19404  0.43262  1.0000
  O  Te28      1.0  0.83413  0.13969  0.99490  1.0000
  Mg  Mg13      1.0  0.92194  0.18684  0.53002  1.0000
  Mg  Mg14      1.0  0.85141  0.10207  0.84287  1.0000
  C  Sn29      1.0  0.11170  0.87773  0.06582  1.0000
  C   C175      1.0  0.08617  0.87797  0.16505  1.0000
  C  Sn30      1.0  0.08959  0.85544  0.29234  1.0000
  C  Sn31      1.0  0.11915  0.83222  0.32111  1.0000
  C   C176      1.0  0.14466  0.83200  0.22193  1.0000
  C  Sn32      1.0  0.14126  0.85451  0.09459  1.0000
  O  Te29      1.0  0.10793  0.89956  0.93926  1.0000
  O  Te30      1.0  0.06372  0.85614  0.38989  1.0000
  O  Te31      1.0  0.12308  0.80946  0.44779  1.0000
  O  Te32      1.0  0.16729  0.85290  0.99709  1.0000
  Mg  Mg15      1.0  0.08086  0.82018  0.54726  1.0000
  Mg  Mg16      1.0  0.15018  0.88887  0.83973  1.0000
  C  Sn33      1.0  0.37606  0.39837  0.60546  1.0000
  C   C177      1.0  0.40277  0.39597  0.69875  1.0000
  C  Sn34      1.0  0.40737  0.35915  0.78305  1.0000
  C  Sn35      1.0  0.38481  0.32399  0.77388  1.0000
  C   C178      1.0  0.35812  0.32639  0.68062  1.0000
  C  Sn36      1.0  0.35350  0.36320  0.59628  1.0000
  O  Te33      1.0  0.37194  0.43549  0.52217  1.0000
  O  Te34      1.0  0.43425  0.35751  0.87556  1.0000
  O  Te35      1.0  0.38895  0.28685  0.85726  1.0000
  O  Te36      1.0  0.32664  0.36485  0.50380  1.0000
  Mg  Mg17      1.0  0.42935  0.29995  0.96707  1.0000
  Mg  Mg18      1.0  0.33152  0.42238  0.41220  1.0000
  C  Sn37      1.0  0.62686  0.63507  0.54716  1.0000
  C   C179      1.0  0.63647  0.66849  0.63785  1.0000
  C  Sn38      1.0  0.62204  0.67242  0.77100  1.0000
  C  Sn39      1.0  0.59751  0.64230  0.81446  1.0000
  C   C180      1.0  0.58792  0.60890  0.72381  1.0000
  C  Sn40      1.0  0.60233  0.60495  0.59062  1.0000
  O  Te37      1.0  0.64161  0.63177  0.41452  1.0000
  O  Te38      1.0  0.63205  0.70611  0.85980  1.0000
  O  Te39      1.0  0.58276  0.64563  0.94722  1.0000
  O  Te40      1.0  0.59234  0.57129  0.50186  1.0000
  Mg  Mg19      1.0  0.60451  0.69796  0.03040  1.0000
  Mg  Mg20      1.0  0.61970  0.58031  0.33127  1.0000
  C  Sn41      1.0  0.62651  0.36527  0.93309  1.0000
  C   C181      1.0  0.63466  0.33003  0.84722  1.0000
  C  Sn42      1.0  0.61895  0.32435  0.71735  1.0000
  C  Sn43      1.0  0.59460  0.35453  0.67231  1.0000
  C   C182      1.0  0.58646  0.38975  0.75815  1.0000
  C  Sn44      1.0  0.60216  0.39545  0.88806  1.0000
  O  Te41      1.0  0.64236  0.37123  0.06251  1.0000
  O  Te42      1.0  0.62751  0.28885  0.63335  1.0000
  O  Te43      1.0  0.57857  0.34946  0.54278  1.0000
  O  Te44      1.0  0.59361  0.43092  0.97202  1.0000
  Mg  Mg21      1.0  0.59877  0.29596  0.46576  1.0000
  Mg  Mg22      1.0  0.62218  0.42478  0.13958  1.0000
  C  Sn45      1.0  0.37648  0.60079  0.87648  1.0000
  C   C183      1.0  0.40410  0.60638  0.78983  1.0000
  C  Sn46      1.0  0.41002  0.64634  0.72427  1.0000
  C  Sn47      1.0  0.38789  0.68145  0.74582  1.0000
  C   C184      1.0  0.36029  0.67586  0.83244  1.0000
  C  Sn48      1.0  0.35435  0.63591  0.89803  1.0000
  O  Te45      1.0  0.37105  0.56056  0.94097  1.0000
  O  Te46      1.0  0.43779  0.65113  0.63807  1.0000
  O  Te47      1.0  0.39334  0.72170  0.68124  1.0000
  O  Te48      1.0  0.32660  0.63110  0.98420  1.0000
  Mg  Mg23      1.0  0.43459  0.71223  0.57339  1.0000
  Mg  Mg24      1.0  0.32962  0.57095  0.04899  1.0000
  C  Sn49      1.0  0.13497  0.11951  0.89906  1.0000
  C   C185      1.0  0.14474  0.15350  0.81035  1.0000
  C  Sn50      1.0  0.12243  0.17155  0.71409  1.0000
  C  Sn51      1.0  0.08966  0.15531  0.70640  1.0000
  C   C186      1.0  0.07991  0.12135  0.79509  1.0000
  C  Sn52      1.0  0.10220  0.10327  0.89137  1.0000
  O  Te49      1.0  0.15769  0.10196  0.99449  1.0000
  O  Te50      1.0  0.13277  0.20550  0.62646  1.0000
  O  Te51      1.0  0.06694  0.17290  0.61086  1.0000
  O  Te52      1.0  0.09187  0.06935  0.97898  1.0000
  Mg  Mg25      1.0  0.09275  0.21871  0.51383  1.0000
  Mg  Mg26      1.0  0.13169  0.05706  0.09169  1.0000
  C  Sn53      1.0  0.89802  0.85180  0.66834  1.0000
  C   C187      1.0  0.90611  0.88795  0.75027  1.0000
  C  Sn54      1.0  0.89032  0.89504  0.87914  1.0000
  C  Sn55      1.0  0.86595  0.86535  0.92718  1.0000
  C   C188      1.0  0.85788  0.82922  0.84529  1.0000
  C  Sn56      1.0  0.87365  0.82212  0.71638  1.0000
  O  Te53      1.0  0.91412  0.84536  0.53986  1.0000
  O  Te54      1.0  0.89882  0.93142  0.95918  1.0000
  O  Te55      1.0  0.84968  0.87274  0.05578  1.0000
  O  Te56      1.0  0.86517  0.78576  0.63639  1.0000
  Mg  Mg27      1.0  0.86981  0.92705  0.12698  1.0000
  Mg  Mg28      1.0  0.89400  0.79100  0.46861  1.0000
  C  Sn57      1.0  0.88530  0.11792  0.54654  1.0000
  C   C189      1.0  0.91166  0.12040  0.64151  1.0000
  C  Sn58      1.0  0.90853  0.14406  0.76628  1.0000
  C  Sn59      1.0  0.87840  0.16567  0.79681  1.0000
  C   C190      1.0  0.85206  0.16318  0.70188  1.0000
  C  Sn60      1.0  0.85517  0.13953  0.57707  1.0000
  O  Te57      1.0  0.88899  0.09408  0.42245  1.0000
  O  Te58      1.0  0.93523  0.14608  0.85957  1.0000
  O  Te59      1.0  0.87473  0.18952  0.92101  1.0000
  O  Te60      1.0  0.82849  0.13750  0.48382  1.0000
  Mg  Mg29      1.0  0.91798  0.18353  0.01486  1.0000
  Mg  Mg30      1.0  0.84553  0.10096  0.32854  1.0000
  C  Sn61      1.0  0.10552  0.82057  0.76687  1.0000
  C   C191      1.0  0.13208  0.82381  0.67325  1.0000
  C  Sn62      1.0  0.13809  0.86261  0.60086  1.0000
  C  Sn63      1.0  0.11714  0.89895  0.62256  1.0000
  C   C192      1.0  0.09060  0.89570  0.71614  1.0000
  C  Sn64      1.0  0.08456  0.85691  0.78857  1.0000
  O  Te61      1.0  0.09997  0.78147  0.83811  1.0000
  O  Te62      1.0  0.16479  0.86506  0.50777  1.0000
  O  Te63      1.0  0.12270  0.93808  0.55121  1.0000
  O  Te64      1.0  0.05788  0.85445  0.88163  1.0000
  Mg  Mg31      1.0  0.16222  0.92540  0.43540  1.0000
  Mg  Mg32      1.0  0.06044  0.79415  0.95410  1.0000
