data_image0
_chemical_formula_structural       C5H2C4H2NC4HOCH4C5H2C2H2NC4HOCH4C5H2C6H4NC4HOCH4C5H2C6H4NC4HOCH4C5H2NC4HOCH4C5H2NC4HOCH4C5H2C4H2NC4HOCH4C5H2C2H2NC4HOCH4N8Co2C5H2C4H2NC4HOCH4C5H2C2H2NC4HOCH4C5H2C2H2NC4HOCH4C5H2C4H2NC4HOCH4C5H2C2H2NC4HOCH4C5H2C4H2NC4HOCH4C5H2C2H2NC4HOCH4C5H2C4H2NC4HOCH4N8Co2SnCSn2CSnTe4Mg2SnCSn2CSnTe4Mg2SnCSn2CSnTe4Mg2SnCSn2CSnTe4Mg2SnCSn2CSnTe4Mg2SnCSn2CSnTe4Mg2SnCSn2CSnTe4Mg2SnCSn2CSnTe4Mg2
_chemical_formula_sum              "C224 H144 N32 O16 Co4 Sn32 Te32 Mg16"
_cell_length_a       40.4436
_cell_length_b       30.7693
_cell_length_c       9.48305
_cell_angle_alpha    89.8286
_cell_angle_beta     90.043
_cell_angle_gamma    89.9804

_symmetry_space_group_name_H-M    'P1'
_space_group_IT_number       1

loop_
  _space_group_symop_operation_xyz
  'x, y, z'

loop_
  _atom_site_type_symbol
  _atom_site_label
  _atom_site_symmetry_multiplicity
  _atom_site_fract_x
  _atom_site_fract_y
  _atom_site_fract_z
  _atom_site_occupancy
  C   C1        1.0  0.47563  0.40667  0.24624  1.0000
  C   C2        1.0  0.44230  0.41984  0.23844  1.0000
  C   C3        1.0  0.43177  0.46339  0.25379  1.0000
  C   C4        1.0  0.48668  0.36214  0.24770  1.0000
  C   C5        1.0  0.39765  0.47643  0.26522  1.0000
  H   H1        1.0  0.47110  0.33393  0.23385  1.0000
  H   H2        1.0  0.37661  0.45479  0.26440  1.0000
  C   C6        1.0  0.36365  0.36856  0.10253  1.0000
  C   C7        1.0  0.39153  0.39472  0.11233  1.0000
  C   C8        1.0  0.41578  0.38714  0.21644  1.0000
  C   C9        1.0  0.35885  0.33316  0.19475  1.0000
  H   H3        1.0  0.34467  0.37515  0.02409  1.0000
  H   H4        1.0  0.39471  0.42192  0.03997  1.0000
  N   N1        1.0  0.32817  0.31221  0.18401  1.0000
  C   C10       1.0  0.31781  0.28548  0.28052  1.0000
  C   C11       1.0  0.28455  0.26741  0.27226  1.0000
  C   C12       1.0  0.26138  0.28532  0.17772  1.0000
  C   C13       1.0  0.27453  0.23261  0.36126  1.0000
  H   H5        1.0  0.33234  0.27638  0.37375  1.0000
  O   O1        1.0  0.29856  0.21442  0.44439  1.0000
  C   C14       1.0  0.21203  0.67158  0.52818  1.0000
  H   H6        1.0  0.27009  0.31177  0.11148  1.0000
  H   H7        1.0  0.23182  0.68257  0.59903  1.0000
  H   H8        1.0  0.22051  0.64329  0.46746  1.0000
  H   H9        1.0  0.19020  0.66288  0.59043  1.0000
  C   C15       1.0  0.52779  0.59448  0.23040  1.0000
  C   C16       1.0  0.56111  0.58122  0.22351  1.0000
  C   C17       1.0  0.57182  0.53786  0.24308  1.0000
  C   C18       1.0  0.51662  0.63892  0.22321  1.0000
  C   C19       1.0  0.60600  0.52493  0.25334  1.0000
  H   H10       1.0  0.53211  0.66687  0.20244  1.0000
  H   H11       1.0  0.62703  0.54657  0.24933  1.0000
  C   C20       1.0  0.38452  0.32304  0.29031  1.0000
  C   C21       1.0  0.41212  0.34979  0.30164  1.0000
  H   H12       1.0  0.38214  0.29545  0.36146  1.0000
  H   H13       1.0  0.43017  0.34329  0.38408  1.0000
  N   N2        1.0  0.67451  0.68959  0.16183  1.0000
  C   C22       1.0  0.68440  0.71723  0.25604  1.0000
  C   C23       1.0  0.71751  0.73557  0.24737  1.0000
  C   C24       1.0  0.74073  0.71770  0.15354  1.0000
  C   C25       1.0  0.72744  0.77028  0.33632  1.0000
  H   H14       1.0  0.66968  0.72675  0.34795  1.0000
  O   O2        1.0  0.70340  0.78777  0.42083  1.0000
  C   C26       1.0  0.78827  0.32227  0.52246  1.0000
  H   H15       1.0  0.73208  0.69129  0.08745  1.0000
  H   H16       1.0  0.76766  0.31179  0.58996  1.0000
  H   H17       1.0  0.78103  0.35133  0.46201  1.0000
  H   H18       1.0  0.80984  0.32954  0.58815  1.0000
  C   C27       1.0  0.53006  0.40771  0.27407  1.0000
  C   C28       1.0  0.56304  0.42216  0.28413  1.0000
  C   C29       1.0  0.57272  0.46618  0.27280  1.0000
  C   C30       1.0  0.52006  0.36273  0.27131  1.0000
  C   C31       1.0  0.60658  0.48076  0.26894  1.0000
  H   H19       1.0  0.53624  0.33503  0.28435  1.0000
  H   H20       1.0  0.62820  0.46021  0.27640  1.0000
  C   C32       1.0  0.64149  0.36898  0.41758  1.0000
  C   C33       1.0  0.61384  0.39566  0.40916  1.0000
  C   C34       1.0  0.59001  0.38983  0.30255  1.0000
  C   C35       1.0  0.64629  0.33464  0.32179  1.0000
  C   C36       1.0  0.37932  0.67138  0.21668  1.0000
  C   C37       1.0  0.40746  0.64559  0.20635  1.0000
  H   H21       1.0  0.66019  0.37402  0.49835  1.0000
  H   H22       1.0  0.61035  0.42164  0.48532  1.0000
  H   H23       1.0  0.37500  0.69601  0.13631  1.0000
  H   H24       1.0  0.42407  0.65014  0.11746  1.0000
  N   N3        1.0  0.67652  0.31273  0.33367  1.0000
  C   C38       1.0  0.68514  0.28205  0.24747  1.0000
  C   C39       1.0  0.71843  0.26421  0.25451  1.0000
  C   C40       1.0  0.74192  0.28351  0.34418  1.0000
  C   C41       1.0  0.72836  0.22899  0.16756  1.0000
  H   H25       1.0  0.66915  0.26931  0.16387  1.0000
  O   O3        1.0  0.70415  0.21023  0.08660  1.0000
  C   C42       1.0  0.78701  0.67960  0.97345  1.0000
  H   H26       1.0  0.73327  0.31054  0.40757  1.0000
  H   H27       1.0  0.76683  0.68980  0.90312  1.0000
  H   H28       1.0  0.77931  0.65101  0.03516  1.0000
  H   H29       1.0  0.80889  0.67170  0.91051  1.0000
  C   C43       1.0  0.47347  0.59381  0.26315  1.0000
  C   C44       1.0  0.44067  0.57936  0.28177  1.0000
  C   C45       1.0  0.43104  0.53523  0.27672  1.0000
  C   C46       1.0  0.48333  0.63863  0.24918  1.0000
  C   C47       1.0  0.39716  0.52066  0.27704  1.0000
  H   H30       1.0  0.46709  0.66646  0.25638  1.0000
  H   H31       1.0  0.37558  0.54127  0.28387  1.0000
  C   C48       1.0  0.36247  0.63079  0.42276  1.0000
  C   C49       1.0  0.39090  0.60560  0.41348  1.0000
  C   C50       1.0  0.41352  0.61133  0.30205  1.0000
  C   C51       1.0  0.35555  0.66351  0.32275  1.0000
  C   C52       1.0  0.62144  0.32699  0.22024  1.0000
  C   C53       1.0  0.59414  0.35432  0.21042  1.0000
  H   H32       1.0  0.34465  0.62556  0.50694  1.0000
  H   H33       1.0  0.39569  0.58046  0.49184  1.0000
  H   H34       1.0  0.62425  0.30111  0.14335  1.0000
  H   H35       1.0  0.57651  0.34968  0.12514  1.0000
  N   N4        1.0  0.32457  0.68367  0.33571  1.0000
  C   C54       1.0  0.31436  0.71251  0.24523  1.0000
  C   C55       1.0  0.28079  0.72945  0.25315  1.0000
  C   C56       1.0  0.25775  0.71059  0.34622  1.0000
  C   C57       1.0  0.27017  0.76412  0.16441  1.0000
  H   H36       1.0  0.32937  0.72452  0.15719  1.0000
  O   O4        1.0  0.29368  0.78262  0.07935  1.0000
  C   C58       1.0  0.21505  0.32275  0.99546  1.0000
  H   H37       1.0  0.26665  0.68415  0.41203  1.0000
  H   H38       1.0  0.23525  0.31312  0.92469  1.0000
  H   H39       1.0  0.22273  0.35086  0.05869  1.0000
  H   H40       1.0  0.19318  0.33108  0.93286  1.0000
  C   C59       1.0  0.02984  0.09356  0.27431  1.0000
  C   C60       1.0  0.06289  0.07905  0.27896  1.0000
  C   C61       1.0  0.07245  0.03527  0.25961  1.0000
  C   C62       1.0  0.01975  0.13845  0.27938  1.0000
  C   C63       1.0  0.10621  0.02117  0.24363  1.0000
  H   H41       1.0  0.03583  0.16584  0.29925  1.0000
  H   H42       1.0  0.12764  0.04217  0.24210  1.0000
  N   N5        1.0  0.17660  0.18749  0.34049  1.0000
  C   C64       1.0  0.18628  0.21607  0.24843  1.0000
  C   C65       1.0  0.21906  0.23526  0.26011  1.0000
  C   C66       1.0  0.24214  0.21762  0.35556  1.0000
  C   C67       1.0  0.22901  0.27008  0.17108  1.0000
  H   H43       1.0  0.17173  0.22563  0.15574  1.0000
  O   O5        1.0  0.20507  0.28756  0.08564  1.0000
  C   C68       1.0  0.28336  0.81819  0.99155  1.0000
  H   H44       1.0  0.23346  0.19118  0.42188  1.0000
  H   H45       1.0  0.26388  0.80825  0.91753  1.0000
  H   H46       1.0  0.27459  0.84564  0.05550  1.0000
  H   H47       1.0  0.30540  0.82774  0.93223  1.0000
  C   C69       1.0  0.97313  0.90819  0.26986  1.0000
  C   C70       1.0  0.94016  0.92267  0.27959  1.0000
  C   C71       1.0  0.93050  0.96667  0.26868  1.0000
  C   C72       1.0  0.98297  0.86318  0.26602  1.0000
  C   C73       1.0  0.89664  0.98125  0.26387  1.0000
  H   H48       1.0  0.96657  0.83566  0.27767  1.0000
  H   H49       1.0  0.87504  0.96068  0.27078  1.0000
  N   N6        1.0  0.82598  0.81404  0.32077  1.0000
  C   C74       1.0  0.81638  0.78555  0.22865  1.0000
  C   C75       1.0  0.78315  0.76737  0.23681  1.0000
  C   C76       1.0  0.75981  0.78546  0.32996  1.0000
  C   C77       1.0  0.77318  0.73251  0.14836  1.0000
  H   H50       1.0  0.83152  0.77484  0.13941  1.0000
  O   O6        1.0  0.79705  0.71445  0.06441  1.0000
  C   C78       1.0  0.71421  0.17599  0.99343  1.0000
  H   H51       1.0  0.76847  0.81208  0.39520  1.0000
  H   H52       1.0  0.73414  0.18684  0.92300  1.0000
  H   H53       1.0  0.72229  0.14718  0.05324  1.0000
  H   H54       1.0  0.69224  0.16824  0.93084  1.0000
  C   C79       1.0  0.97547  0.09510  0.24335  1.0000
  C   C80       1.0  0.94223  0.08197  0.22948  1.0000
  C   C81       1.0  0.93146  0.03841  0.24181  1.0000
  C   C82       1.0  0.98650  0.13952  0.25315  1.0000
  C   C83       1.0  0.89722  0.02545  0.24909  1.0000
  H   H55       1.0  0.97106  0.16805  0.24300  1.0000
  H   H56       1.0  0.87617  0.04704  0.24405  1.0000
  C   C84       1.0  0.86439  0.13464  0.09006  1.0000
  C   C85       1.0  0.89229  0.10849  0.09963  1.0000
  C   C86       1.0  0.91587  0.11489  0.20708  1.0000
  C   C87       1.0  0.85908  0.16908  0.18491  1.0000
  H   H57       1.0  0.84570  0.12873  0.00991  1.0000
  H   H58       1.0  0.89589  0.08212  0.02492  1.0000
  N   N7        1.0  0.82832  0.18982  0.17339  1.0000
  C   C88       1.0  0.81806  0.21709  0.26795  1.0000
  C   C89       1.0  0.78453  0.23422  0.26097  1.0000
  C   C90       1.0  0.76107  0.21491  0.17108  1.0000
  C   C91       1.0  0.77450  0.26922  0.34836  1.0000
  H   H59       1.0  0.83283  0.22736  0.35895  1.0000
  O   O7        1.0  0.79855  0.28794  0.42984  1.0000
  C   C92       1.0  0.71312  0.82322  0.50974  1.0000
  H   H60       1.0  0.76985  0.18830  0.10612  1.0000
  H   H61       1.0  0.72046  0.85154  0.44612  1.0000
  H   H62       1.0  0.69126  0.83110  0.57268  1.0000
  H   H63       1.0  0.73347  0.81386  0.58029  1.0000
  C   C93       1.0  0.02754  0.90691  0.24129  1.0000
  C   C94       1.0  0.06081  0.91987  0.22770  1.0000
  C   C95       1.0  0.07158  0.96353  0.23413  1.0000
  C   C96       1.0  0.01637  0.86241  0.24325  1.0000
  C   C97       1.0  0.10574  0.97694  0.23056  1.0000
  H   H64       1.0  0.03188  0.83411  0.22926  1.0000
  H   H65       1.0  0.12684  0.95567  0.21954  1.0000
  C   C98       1.0  0.88405  0.17797  0.28481  1.0000
  C   C99       1.0  0.91152  0.15100  0.29645  1.0000
  H   H66       1.0  0.88121  0.20451  0.35926  1.0000
  H   H67       1.0  0.92887  0.15609  0.38241  1.0000
  N   N8        1.0  0.17221  0.80698  0.18270  1.0000
  C   C100      1.0  0.18129  0.77735  0.27251  1.0000
  C   C101      1.0  0.21461  0.75954  0.26422  1.0000
  C   C102      1.0  0.23757  0.77829  0.17061  1.0000
  C   C103      1.0  0.22510  0.72470  0.35212  1.0000
  H   H68       1.0  0.16579  0.76564  0.35946  1.0000
  O   O8        1.0  0.20145  0.70598  0.43599  1.0000
  C   C104      1.0  0.28897  0.17860  0.53276  1.0000
  H   H69       1.0  0.22845  0.80468  0.10496  1.0000
  H   H70       1.0  0.26939  0.18806  0.60689  1.0000
  H   H71       1.0  0.28058  0.15094  0.46878  1.0000
  H   H72       1.0  0.31126  0.16972  0.59188  1.0000
  N   N9        1.0  0.50100  0.56717  0.25191  1.0000
  N   N10       1.0  0.50253  0.43423  0.26033  1.0000
  N   N11       1.0  0.00073  0.93458  0.25670  1.0000
  N   N12       1.0  0.00233  0.06734  0.25546  1.0000
  N   N13       1.0  0.45193  0.49973  0.26284  1.0000
  N   N14       1.0  0.55175  0.50159  0.25718  1.0000
  N   N15       1.0  0.05150  0.99972  0.25130  1.0000
  N   N16       1.0  0.95150  0.00206  0.25490  1.0000
  Co  Co1       1.0  0.50193  0.50077  0.25785  1.0000
  Co  Co2       1.0  0.00148  0.00092  0.25617  1.0000
  C   C105      1.0  0.47116  0.40721  0.72534  1.0000
  C   C106      1.0  0.43814  0.42139  0.71292  1.0000
  C   C107      1.0  0.42824  0.46537  0.72141  1.0000
  C   C108      1.0  0.48134  0.36234  0.73300  1.0000
  C   C109      1.0  0.39431  0.47977  0.72147  1.0000
  H   H73       1.0  0.46525  0.33446  0.72272  1.0000
  H   H74       1.0  0.37282  0.45916  0.71095  1.0000
  C   C110      1.0  0.35956  0.36771  0.58451  1.0000
  C   C111      1.0  0.38756  0.39377  0.58913  1.0000
  C   C112      1.0  0.41122  0.38887  0.69698  1.0000
  C   C113      1.0  0.35423  0.33479  0.68549  1.0000
  H   H75       1.0  0.34094  0.37229  0.50297  1.0000
  H   H76       1.0  0.39130  0.41882  0.50957  1.0000
  N   N17       1.0  0.32352  0.31394  0.67787  1.0000
  C   C114      1.0  0.31475  0.28372  0.76608  1.0000
  C   C115      1.0  0.28115  0.26682  0.76160  1.0000
  C   C116      1.0  0.25778  0.28633  0.67147  1.0000
  C   C117      1.0  0.27098  0.23171  0.84908  1.0000
  H   H77       1.0  0.33092  0.27044  0.84838  1.0000
  O   O9        1.0  0.29509  0.21238  0.92934  1.0000
  C   C118      1.0  0.21247  0.67585  0.01803  1.0000
  H   H78       1.0  0.26666  0.31293  0.60631  1.0000
  H   H79       1.0  0.23173  0.68628  0.09235  1.0000
  H   H80       1.0  0.22168  0.64845  0.95508  1.0000
  H   H81       1.0  0.19042  0.66591  0.07668  1.0000
  C   C119      1.0  0.52677  0.59377  0.73241  1.0000
  C   C120      1.0  0.55974  0.57961  0.71705  1.0000
  C   C121      1.0  0.56968  0.53560  0.72428  1.0000
  C   C122      1.0  0.51661  0.63850  0.74568  1.0000
  C   C123      1.0  0.60365  0.52139  0.72730  1.0000
  H   H82       1.0  0.53263  0.66652  0.73807  1.0000
  H   H83       1.0  0.62506  0.54233  0.72112  1.0000
  C   C124      1.0  0.37901  0.32772  0.78796  1.0000
  C   C125      1.0  0.40666  0.35451  0.79394  1.0000
  H   H84       1.0  0.37580  0.30286  0.86857  1.0000
  H   H85       1.0  0.42412  0.35053  0.88023  1.0000
  N   N18       1.0  0.67299  0.68919  0.66339  1.0000
  C   C126      1.0  0.68220  0.71866  0.75301  1.0000
  C   C127      1.0  0.71550  0.73643  0.74576  1.0000
  C   C128      1.0  0.73885  0.71756  0.65465  1.0000
  C   C129      1.0  0.72558  0.77130  0.83377  1.0000
  H   H86       1.0  0.66669  0.73045  0.83958  1.0000
  O   O10       1.0  0.70151  0.79012  0.91485  1.0000
  C   C130      1.0  0.78260  0.31936  0.00881  1.0000
  H   H87       1.0  0.73001  0.69111  0.58923  1.0000
  H   H88       1.0  0.76254  0.30802  0.07769  1.0000
  H   H89       1.0  0.77437  0.34801  0.94869  1.0000
  H   H90       1.0  0.80417  0.32764  0.07317  1.0000
  C   C131      1.0  0.52557  0.40673  0.75447  1.0000
  C   C132      1.0  0.55885  0.42009  0.76316  1.0000
  C   C133      1.0  0.56931  0.46371  0.74859  1.0000
  C   C134      1.0  0.51470  0.36212  0.75702  1.0000
  C   C135      1.0  0.60342  0.47711  0.74015  1.0000
  H   H91       1.0  0.53042  0.33416  0.77441  1.0000
  H   H92       1.0  0.62464  0.45575  0.74357  1.0000
  C   C136      1.0  0.38205  0.67843  0.72839  1.0000
  C   C137      1.0  0.40945  0.65137  0.71520  1.0000
  H   H93       1.0  0.38019  0.70713  0.66153  1.0000
  H   H94       1.0  0.42793  0.65870  0.63536  1.0000
  N   N19       1.0  0.67085  0.30805  0.82064  1.0000
  C   C138      1.0  0.67987  0.27782  0.73342  1.0000
  C   C139      1.0  0.71328  0.26015  0.74114  1.0000
  C   C140      1.0  0.73659  0.27960  0.83145  1.0000
  C   C141      1.0  0.72366  0.22523  0.65369  1.0000
  H   H95       1.0  0.66427  0.26549  0.64783  1.0000
  O   O11       1.0  0.69986  0.20604  0.57163  1.0000
  C   C142      1.0  0.78526  0.67848  0.47750  1.0000
  H   H96       1.0  0.72761  0.30637  0.89515  1.0000
  H   H97       1.0  0.76626  0.69002  0.40347  1.0000
  H   H98       1.0  0.77582  0.65045  0.53743  1.0000
  H   H99       1.0  0.80749  0.66920  0.41895  1.0000
  C   C143      1.0  0.47241  0.59388  0.76424  1.0000
  C   C144      1.0  0.43913  0.58041  0.77093  1.0000
  C   C145      1.0  0.42868  0.53700  0.75067  1.0000
  C   C146      1.0  0.48334  0.63838  0.77188  1.0000
  C   C147      1.0  0.39460  0.52390  0.73710  1.0000
  H   H100      1.0  0.46779  0.66613  0.79400  1.0000
  H   H101      1.0  0.37341  0.54534  0.73893  1.0000
  C   C148      1.0  0.36022  0.63073  0.90841  1.0000
  C   C149      1.0  0.38788  0.60425  0.89672  1.0000
  C   C150      1.0  0.41258  0.61288  0.79556  1.0000
  C   C151      1.0  0.35603  0.66741  0.82102  1.0000
  H   H102      1.0  0.34096  0.62355  0.98496  1.0000
  H   H103      1.0  0.39060  0.57615  0.96574  1.0000
  N   N20       1.0  0.32549  0.68861  0.83329  1.0000
  C   C152      1.0  0.31499  0.71525  0.73673  1.0000
  C   C153      1.0  0.28167  0.73309  0.74511  1.0000
  C   C154      1.0  0.25860  0.71486  0.83919  1.0000
  C   C155      1.0  0.27140  0.76764  0.65562  1.0000
  H   H104      1.0  0.32932  0.72397  0.64266  1.0000
  O   O12       1.0  0.29527  0.78567  0.57140  1.0000
  C   C156      1.0  0.21157  0.32643  0.49491  1.0000
  H   H105      1.0  0.26755  0.68859  0.90573  1.0000
  H   H106      1.0  0.23048  0.31563  0.41946  1.0000
  H   H107      1.0  0.22114  0.35382  0.55701  1.0000
  H   H108      1.0  0.18931  0.33647  0.43768  1.0000
  C   C157      1.0  0.02604  0.09409  0.74812  1.0000
  C   C158      1.0  0.05899  0.08036  0.76776  1.0000
  C   C159      1.0  0.06929  0.03647  0.76452  1.0000
  C   C160      1.0  0.01561  0.13879  0.73726  1.0000
  C   C161      1.0  0.10330  0.02248  0.77095  1.0000
  H   H109      1.0  0.03154  0.16681  0.74760  1.0000
  H   H110      1.0  0.12459  0.04342  0.78212  1.0000
  C   C162      1.0  0.88050  0.82490  0.71219  1.0000
  C   C163      1.0  0.90802  0.85180  0.70122  1.0000
  H   H111      1.0  0.87799  0.79785  0.63948  1.0000
  H   H112      1.0  0.92598  0.84591  0.61818  1.0000
  N   N21       1.0  0.17213  0.18927  0.83114  1.0000
  C   C164      1.0  0.18147  0.22006  0.74615  1.0000
  C   C165      1.0  0.21490  0.23731  0.75470  1.0000
  C   C166      1.0  0.23825  0.21786  0.84533  1.0000
  C   C167      1.0  0.22512  0.27244  0.66742  1.0000
  H   H113      1.0  0.16582  0.23351  0.66230  1.0000
  O   O13       1.0  0.20125  0.29148  0.58531  1.0000
  C   C168      1.0  0.28539  0.82062  0.47995  1.0000
  H   H114      1.0  0.22947  0.19111  0.91015  1.0000
  H   H115      1.0  0.26520  0.81056  0.40961  1.0000
  H   H116      1.0  0.27777  0.84922  0.54128  1.0000
  H   H117      1.0  0.30735  0.82838  0.41722  1.0000
  C   C169      1.0  0.97181  0.90716  0.75961  1.0000
  C   C170      1.0  0.93863  0.92096  0.76674  1.0000
  C   C171      1.0  0.92846  0.96462  0.75024  1.0000
  C   C172      1.0  0.98234  0.86243  0.76159  1.0000
  C   C173      1.0  0.89442  0.97820  0.74032  1.0000
  H   H118      1.0  0.96641  0.83460  0.77729  1.0000
  H   H119      1.0  0.87313  0.95700  0.74395  1.0000
  C   C174      1.0  0.85992  0.86941  0.90225  1.0000
  C   C175      1.0  0.88771  0.89575  0.89264  1.0000
  C   C176      1.0  0.91187  0.88856  0.78825  1.0000
  C   C177      1.0  0.85513  0.83424  0.80970  1.0000
  H   H120      1.0  0.84105  0.87547  0.98141  1.0000
  H   H121      1.0  0.89098  0.92259  0.96588  1.0000
  N   N22       1.0  0.82469  0.81284  0.82199  1.0000
  C   C178      1.0  0.81476  0.78469  0.72942  1.0000
  C   C179      1.0  0.78154  0.76669  0.73850  1.0000
  C   C180      1.0  0.75825  0.78539  0.83034  1.0000
  C   C181      1.0  0.77147  0.73171  0.65090  1.0000
  H   H122      1.0  0.82949  0.77447  0.63833  1.0000
  O   O14       1.0  0.79557  0.71262  0.57067  1.0000
  C   C182      1.0  0.71012  0.17074  0.48302  1.0000
  H   H123      1.0  0.76707  0.81189  0.89573  1.0000
  H   H124      1.0  0.72855  0.18146  0.40520  1.0000
  H   H125      1.0  0.72024  0.14384  0.54631  1.0000
  H   H126      1.0  0.68769  0.16003  0.42845  1.0000
  C   C183      1.0  0.97173  0.09381  0.71496  1.0000
  C   C184      1.0  0.93857  0.08001  0.70664  1.0000
  C   C185      1.0  0.92839  0.03627  0.72098  1.0000
  C   C186      1.0  0.98229  0.13854  0.71158  1.0000
  C   C187      1.0  0.89436  0.02236  0.72519  1.0000
  H   H127      1.0  0.96641  0.16628  0.69296  1.0000
  H   H128      1.0  0.87298  0.04330  0.71727  1.0000
  C   C188      1.0  0.11724  0.82378  0.78393  1.0000
  C   C189      1.0  0.09000  0.85116  0.79593  1.0000
  H   H129      1.0  0.11936  0.79609  0.85489  1.0000
  H   H130      1.0  0.07201  0.84500  0.87873  1.0000
  N   N23       1.0  0.82329  0.18598  0.66383  1.0000
  C   C190      1.0  0.81330  0.21408  0.75626  1.0000
  C   C191      1.0  0.77968  0.23092  0.74880  1.0000
  C   C192      1.0  0.75644  0.21155  0.65805  1.0000
  C   C193      1.0  0.76934  0.26593  0.83560  1.0000
  H   H131      1.0  0.82831  0.22532  0.84532  1.0000
  O   O15       1.0  0.79334  0.28551  0.91534  1.0000
  C   C194      1.0  0.71195  0.82389  0.00922  1.0000
  H   H132      1.0  0.76546  0.18515  0.59284  1.0000
  H   H133      1.0  0.73117  0.81216  0.08187  1.0000
  H   H134      1.0  0.72115  0.85229  0.95052  1.0000
  H   H135      1.0  0.68992  0.83293  0.06939  1.0000
  C   C195      1.0  0.02633  0.90694  0.73458  1.0000
  C   C196      1.0  0.05954  0.92074  0.72874  1.0000
  C   C197      1.0  0.06950  0.96454  0.74347  1.0000
  C   C198      1.0  0.01575  0.86223  0.73946  1.0000
  C   C199      1.0  0.10337  0.97820  0.75991  1.0000
  H   H136      1.0  0.03164  0.83415  0.72934  1.0000
  H   H137      1.0  0.12460  0.95687  0.76340  1.0000
  C   C200      1.0  0.13855  0.86923  0.59689  1.0000
  C   C201      1.0  0.11103  0.89601  0.60749  1.0000
  C   C202      1.0  0.08648  0.88842  0.71010  1.0000
  C   C203      1.0  0.14277  0.83321  0.68715  1.0000
  H   H138      1.0  0.15757  0.87548  0.51845  1.0000
  H   H139      1.0  0.10816  0.92339  0.53565  1.0000
  N   N24       1.0  0.17281  0.81093  0.67307  1.0000
  C   C204      1.0  0.18292  0.78320  0.76714  1.0000
  C   C205      1.0  0.21586  0.76428  0.75605  1.0000
  C   C206      1.0  0.23892  0.78234  0.66150  1.0000
  C   C207      1.0  0.22603  0.72943  0.84483  1.0000
  H   H140      1.0  0.16869  0.77427  0.86131  1.0000
  O   O16       1.0  0.20208  0.71106  0.92836  1.0000
  C   C208      1.0  0.28475  0.17897  0.02588  1.0000
  H   H141      1.0  0.23017  0.80888  0.59569  1.0000
  H   H142      1.0  0.26549  0.19093  0.09757  1.0000
  H   H143      1.0  0.27568  0.15019  0.96921  1.0000
  H   H144      1.0  0.30685  0.17051  0.08687  1.0000
  N   N25       1.0  0.49938  0.56688  0.74267  1.0000
  N   N26       1.0  0.49857  0.43401  0.73707  1.0000
  N   N27       1.0  0.99906  0.93411  0.74453  1.0000
  N   N28       1.0  0.99888  0.06696  0.73481  1.0000
  N   N29       1.0  0.44899  0.50089  0.73856  1.0000
  N   N30       1.0  0.54897  0.49987  0.73709  1.0000
  N   N31       1.0  0.04892  0.00055  0.74808  1.0000
  N   N32       1.0  0.94896  0.00052  0.73717  1.0000
  Co  Co3       1.0  0.49903  0.50057  0.73620  1.0000
  Co  Co4       1.0  0.99902  0.00073  0.73919  1.0000
  C  Sn1       1.0  0.61748  0.66208  0.81569  1.0000
  C   C209      1.0  0.64186  0.66251  0.71132  1.0000
  C  Sn2       1.0  0.63725  0.63964  0.58580  1.0000
  C  Sn3       1.0  0.60765  0.61587  0.56410  1.0000
  C   C210      1.0  0.58329  0.61546  0.66841  1.0000
  C  Sn4       1.0  0.58788  0.63831  0.79399  1.0000
  O  Te1       1.0  0.62261  0.68517  0.94035  1.0000
  O  Te2       1.0  0.66198  0.64055  0.48303  1.0000
  O  Te3       1.0  0.60253  0.59277  0.43931  1.0000
  O  Te4       1.0  0.56317  0.63742  0.89671  1.0000
  Mg  Mg1       1.0  0.64346  0.60395  0.33085  1.0000
  Mg  Mg2       1.0  0.58147  0.67494  0.04889  1.0000
  C  Sn5       1.0  0.88748  0.88311  0.43812  1.0000
  C   C211      1.0  0.91334  0.88221  0.34054  1.0000
  C  Sn6       1.0  0.90987  0.85966  0.21376  1.0000
  C  Sn7       1.0  0.87991  0.83758  0.18384  1.0000
  C   C212      1.0  0.85406  0.83849  0.28137  1.0000
  C  Sn8       1.0  0.85752  0.86103  0.40820  1.0000
  O  Te5       1.0  0.89149  0.90586  0.56418  1.0000
  O  Te6       1.0  0.93608  0.85921  0.11787  1.0000
  O  Te7       1.0  0.87591  0.81482  0.05765  1.0000
  O  Te8       1.0  0.83133  0.86149  0.50404  1.0000
  Mg  Mg3       1.0  0.91887  0.82281  0.96057  1.0000
  Mg  Mg4       1.0  0.84868  0.89698  0.66133  1.0000
  C  Sn9       1.0  0.62335  0.60216  0.11526  1.0000
  C   C213      1.0  0.59593  0.60721  0.20334  1.0000
  C  Sn10      1.0  0.59029  0.64665  0.27182  1.0000
  C  Sn11      1.0  0.61250  0.68179  0.25177  1.0000
  C   C214      1.0  0.63989  0.67674  0.16372  1.0000
  C  Sn12      1.0  0.64555  0.63730  0.09522  1.0000
  O  Te9       1.0  0.62850  0.56244  0.04787  1.0000
  O  Te10      1.0  0.56272  0.65092  0.35940  1.0000
  O  Te11      1.0  0.60732  0.72153  0.31926  1.0000
  O  Te12      1.0  0.67310  0.63303  0.00767  1.0000
  Mg  Mg5       1.0  0.56627  0.71144  0.42805  1.0000
  Mg  Mg6       1.0  0.66974  0.57161  0.93890  1.0000
  C  Sn13      1.0  0.62097  0.39669  0.87226  1.0000
  C   C215      1.0  0.59401  0.39376  0.78053  1.0000
  C  Sn14      1.0  0.58806  0.35549  0.70586  1.0000
  C  Sn15      1.0  0.60949  0.31937  0.72329  1.0000
  C   C216      1.0  0.63643  0.32230  0.81499  1.0000
  C  Sn16      1.0  0.64240  0.36057  0.88969  1.0000
  O  Te13      1.0  0.62645  0.43527  0.94585  1.0000
  O  Te14      1.0  0.56095  0.35334  0.61473  1.0000
  O  Te15      1.0  0.60399  0.28077  0.64961  1.0000
  O  Te16      1.0  0.66949  0.36272  0.98079  1.0000
  Mg  Mg7       1.0  0.56380  0.29371  0.53786  1.0000
  Mg  Mg8       1.0  0.66648  0.42325  0.05776  1.0000
  C  Sn17      1.0  0.89752  0.14741  0.81221  1.0000
  C   C217      1.0  0.90606  0.11251  0.72556  1.0000
  C  Sn18      1.0  0.89015  0.10653  0.59627  1.0000
  C  Sn19      1.0  0.86520  0.13607  0.55263  1.0000
  C   C218      1.0  0.85668  0.17095  0.63924  1.0000
  C  Sn20      1.0  0.87258  0.17695  0.76857  1.0000
  O  Te17      1.0  0.91376  0.15276  0.94103  1.0000
  O  Te18      1.0  0.89910  0.07139  0.51147  1.0000
  O  Te19      1.0  0.84897  0.13069  0.42370  1.0000
  O  Te20      1.0  0.86365  0.21207  0.85333  1.0000
  Mg  Mg9       1.0  0.86986  0.07787  0.34517  1.0000
  Mg  Mg10      1.0  0.89270  0.20656  0.01961  1.0000
  C  Sn21      1.0  0.10663  0.17859  0.71716  1.0000
  C   C219      1.0  0.13119  0.17789  0.82092  1.0000
  C  Sn22      1.0  0.13483  0.14174  0.90902  1.0000
  C  Sn23      1.0  0.11349  0.10551  0.89303  1.0000
  C   C220      1.0  0.08896  0.10621  0.78931  1.0000
  C  Sn24      1.0  0.08530  0.14235  0.70117  1.0000
  O  Te21      1.0  0.10344  0.21507  0.63026  1.0000
  O  Te22      1.0  0.15937  0.14273  0.01202  1.0000
  O  Te23      1.0  0.11670  0.06901  0.98005  1.0000
  O  Te24      1.0  0.06060  0.14229  0.59821  1.0000
  Mg  Mg11      1.0  0.15394  0.08545  0.10478  1.0000
  Mg  Mg12      1.0  0.06602  0.19954  0.50535  1.0000
  C  Sn25      1.0  0.10300  0.14997  0.18576  1.0000
  C   C221      1.0  0.09576  0.11211  0.26139  1.0000
  C  Sn26      1.0  0.11240  0.10276  0.38702  1.0000
  C  Sn27      1.0  0.13676  0.13188  0.43818  1.0000
  C   C222      1.0  0.14398  0.16972  0.36259  1.0000
  C  Sn28      1.0  0.12736  0.17909  0.23693  1.0000
  O  Te25      1.0  0.08606  0.15867  0.06043  1.0000
  O  Te26      1.0  0.10474  0.06469  0.46075  1.0000
  O  Te27      1.0  0.15370  0.12316  0.56362  1.0000
  O  Te28      1.0  0.13500  0.21714  0.16323  1.0000
  Mg  Mg13      1.0  0.13454  0.06716  0.62627  1.0000
  Mg  Mg14      1.0  0.10538  0.21379  0.99774  1.0000
  C  Sn29      1.0  0.13751  0.87836  0.11112  1.0000
  C   C223      1.0  0.14538  0.84351  0.19985  1.0000
  C  Sn30      1.0  0.12153  0.82598  0.29002  1.0000
  C  Sn31      1.0  0.08913  0.84364  0.29149  1.0000
  C   C224      1.0  0.08128  0.87846  0.20279  1.0000
  C  Sn32      1.0  0.10512  0.89601  0.11259  1.0000
  O  Te29      1.0  0.16175  0.89536  0.02183  1.0000
  O  Te30      1.0  0.12998  0.79115  0.37779  1.0000
  O  Te31      1.0  0.06490  0.82660  0.38088  1.0000
  O  Te32      1.0  0.09668  0.93082  0.02484  1.0000
  Mg  Mg15      1.0  0.08838  0.77917  0.48073  1.0000
  Mg  Mg16      1.0  0.13843  0.94188  0.92182  1.0000
