data_image0
_chemical_formula_structural       C6H6C8H8N8C69H26N4Co2N4H8C8H8C6H6N8C71H26N4Co2N4H8C2Sn2C2HTe2HMgC2Sn2C2HTe2HMgC2Sn2C2HTe2HMgC2Sn2C2HTe2HMgC2Sn2C2HTe2HMgC2Sn2C2HTe2HMgC2Sn2C2HTe2HMgC2Sn2C2HTe2HMgC2Sn2C2HTe2HMgC2Sn2C2HTe2HMgC2Sn2C2HTe2HMgC2Sn2C2HTe2HMg
_chemical_formula_sum              "C216 H120 N32 Co4 Sn24 Te24 Mg12"
_cell_length_a       38.9874
_cell_length_b       33.1392
_cell_length_c       10.3378
_cell_angle_alpha    90.2757
_cell_angle_beta     91.6271
_cell_angle_gamma    90.1037

_symmetry_space_group_name_H-M    'P1'
_space_group_IT_number       1

loop_
  _space_group_symop_operation_xyz
  'x, y, z'

loop_
  _atom_site_type_symbol
  _atom_site_label
  _atom_site_symmetry_multiplicity
  _atom_site_fract_x
  _atom_site_fract_y
  _atom_site_fract_z
  _atom_site_occupancy
  C   C1        1.0  0.63805  0.63043  0.35276  1.0000
  C   C2        1.0  0.14038  0.13028  0.14893  1.0000
  C   C3        1.0  0.85703  0.12845  0.35487  1.0000
  C   C4        1.0  0.61090  0.60352  0.36364  1.0000
  C   C5        1.0  0.11302  0.10340  0.13732  1.0000
  C   C6        1.0  0.88396  0.10106  0.36649  1.0000
  H   H1        1.0  0.65540  0.62827  0.27257  1.0000
  H   H2        1.0  0.15922  0.12775  0.22801  1.0000
  H   H3        1.0  0.83878  0.12675  0.27345  1.0000
  H   H4        1.0  0.60672  0.58003  0.29092  1.0000
  H   H5        1.0  0.11018  0.07956  0.20828  1.0000
  H   H6        1.0  0.88705  0.07780  0.29308  1.0000
  C   C7        1.0  0.11960  0.16390  0.45277  1.0000
  C   C8        1.0  0.12442  0.83914  0.05136  1.0000
  C   C9        1.0  0.87753  0.16092  0.04627  1.0000
  C   C10       1.0  0.37880  0.33615  0.06577  1.0000
  C   C11       1.0  0.09259  0.13636  0.44559  1.0000
  C   C12       1.0  0.09727  0.86605  0.06166  1.0000
  C   C13       1.0  0.90453  0.13364  0.05685  1.0000
  C   C14       1.0  0.40597  0.36340  0.07627  1.0000
  H   H7        1.0  0.12226  0.18568  0.37528  1.0000
  H   H8        1.0  0.12839  0.81663  0.12650  1.0000
  H   H9        1.0  0.87535  0.18448  0.11921  1.0000
  H   H10       1.0  0.37597  0.31351  0.14057  1.0000
  H   H11       1.0  0.07498  0.13655  0.36204  1.0000
  H   H12       1.0  0.08084  0.86451  0.14481  1.0000
  H   H13       1.0  0.92265  0.13585  0.13859  1.0000
  H   H14       1.0  0.42347  0.36217  0.16001  1.0000
  N   N1        1.0  0.17518  0.18380  0.07338  1.0000
  N   N2        1.0  0.82547  0.81543  0.06495  1.0000
  N   N3        1.0  0.82380  0.18411  0.42830  1.0000
  N   N4        1.0  0.17552  0.81932  0.42667  1.0000
  N   N5        1.0  0.32407  0.31640  0.43285  1.0000
  N   N6        1.0  0.67363  0.68452  0.42826  1.0000
  N   N7        1.0  0.67763  0.31829  0.06166  1.0000
  N   N8        1.0  0.32412  0.68117  0.06042  1.0000
  C   C15       1.0  0.18528  0.20688  0.47557  1.0000
  C   C16       1.0  0.81361  0.79174  0.47147  1.0000
  C   C17       1.0  0.81348  0.20603  0.01547  1.0000
  C   C18       1.0  0.18800  0.79413  0.01895  1.0000
  C   C19       1.0  0.31331  0.29330  0.03691  1.0000
  C   C20       1.0  0.68805  0.70380  0.02269  1.0000
  C   C21       1.0  0.68934  0.30090  0.46901  1.0000
  C   C22       1.0  0.31148  0.70533  0.46627  1.0000
  C   C23       1.0  0.21739  0.22947  0.48916  1.0000
  C   C24       1.0  0.78123  0.77031  0.48539  1.0000
  C   C25       1.0  0.78191  0.22923  0.99980  1.0000
  C   C26       1.0  0.28135  0.27065  0.02016  1.0000
  C   C27       1.0  0.72099  0.27759  0.48208  1.0000
  C   C28       1.0  0.24224  0.21954  0.09841  1.0000
  C   C29       1.0  0.75902  0.22653  0.39527  1.0000
  C   C30       1.0  0.25754  0.27794  0.40185  1.0000
  C   C31       1.0  0.74045  0.71995  0.40424  1.0000
  C   C32       1.0  0.74410  0.28106  0.08248  1.0000
  C   C33       1.0  0.22698  0.25642  0.39123  1.0000
  C   C34       1.0  0.77123  0.74061  0.39365  1.0000
  C   C35       1.0  0.77428  0.25908  0.09235  1.0000
  C   C36       1.0  0.27282  0.24088  0.11102  1.0000
  C   C37       1.0  0.72948  0.24978  0.38427  1.0000
  C   C38       1.0  0.47127  0.41367  0.50367  1.0000
  C   C39       1.0  0.52709  0.58774  0.49276  1.0000
  C   C40       1.0  0.52904  0.41287  0.01761  1.0000
  C   C41       1.0  0.47183  0.58599  0.01757  1.0000
  C   C42       1.0  0.02715  0.08688  0.00763  1.0000
  C   C43       1.0  0.97305  0.91204  0.00938  1.0000
  C   C44       1.0  0.96988  0.08619  0.49435  1.0000
  C   C45       1.0  0.02909  0.91430  0.48920  1.0000
  C   C46       1.0  0.58855  0.60621  0.46779  1.0000
  C   C47       1.0  0.08885  0.10634  0.03403  1.0000
  C   C48       1.0  0.90770  0.10320  0.47149  1.0000
  C   C49       1.0  0.43677  0.42622  0.49795  1.0000
  C   C50       1.0  0.56142  0.57524  0.48401  1.0000
  C   C51       1.0  0.56339  0.42595  0.02090  1.0000
  C   C52       1.0  0.43753  0.57299  0.02331  1.0000
  C   C53       1.0  0.06179  0.07496  0.01647  1.0000
  C   C54       1.0  0.93855  0.92412  0.01695  1.0000
  C   C55       1.0  0.93557  0.07273  0.48596  1.0000
  C   C56       1.0  0.06334  0.92782  0.49044  1.0000
  C   C57       1.0  0.64410  0.66104  0.44542  1.0000
  C   C58       1.0  0.14492  0.16105  0.05754  1.0000
  C   C59       1.0  0.85255  0.15907  0.44782  1.0000
  C   C60       1.0  0.42610  0.46678  0.50607  1.0000
  C   C61       1.0  0.57226  0.53473  0.49179  1.0000
  C   C62       1.0  0.57379  0.46658  0.01171  1.0000
  C   C63       1.0  0.42702  0.53227  0.01564  1.0000
  C   C64       1.0  0.07298  0.03459  0.00742  1.0000
  C   C65       1.0  0.92738  0.96452  0.00900  1.0000
  C   C66       1.0  0.92560  0.03185  0.49362  1.0000
  C   C67       1.0  0.07340  0.96843  0.50697  1.0000
  C   C68       1.0  0.48244  0.37220  0.50415  1.0000
  C   C69       1.0  0.51595  0.62920  0.49049  1.0000
  C   C70       1.0  0.51833  0.37118  0.01916  1.0000
  C   C71       1.0  0.48259  0.62765  0.01763  1.0000
  C   C72       1.0  0.01557  0.12821  0.00698  1.0000
  C   C73       1.0  0.98453  0.87071  0.00621  1.0000
  C   C74       1.0  0.98032  0.12796  0.49473  1.0000
  C   C75       1.0  0.01877  0.87257  0.47962  1.0000
  C   C76       1.0  0.39074  0.47931  0.51102  1.0000
  C   C77       1.0  0.60767  0.52222  0.49312  1.0000
  C   C78       1.0  0.60902  0.47961  0.00678  1.0000
  C   C79       1.0  0.39166  0.51931  0.00827  1.0000
  C   C80       1.0  0.10843  0.02265  0.00005  1.0000
  C   C81       1.0  0.89184  0.97658  0.00617  1.0000
  C   C82       1.0  0.89051  0.01821  0.49702  1.0000
  C   C83       1.0  0.10858  0.98185  0.51795  1.0000
  H   H15       1.0  0.17274  0.20740  0.37888  1.0000
  H   H16       1.0  0.82624  0.78722  0.37865  1.0000
  H   H17       1.0  0.82741  0.21038  0.10866  1.0000
  H   H18       1.0  0.17560  0.79025  0.11241  1.0000
  H   H19       1.0  0.32594  0.29130  0.13321  1.0000
  H   H20       1.0  0.67696  0.70512  0.11939  1.0000
  H   H21       1.0  0.67692  0.30057  0.37205  1.0000
  H   H22       1.0  0.32369  0.70789  0.37198  1.0000
  H   H23       1.0  0.23551  0.19643  0.16765  1.0000
  H   H24       1.0  0.76533  0.20467  0.32086  1.0000
  H   H25       1.0  0.26491  0.29893  0.32701  1.0000
  H   H26       1.0  0.73262  0.69675  0.33467  1.0000
  H   H27       1.0  0.73802  0.30403  0.15368  1.0000
  H   H28       1.0  0.21017  0.26016  0.30621  1.0000
  H   H29       1.0  0.78794  0.73405  0.31366  1.0000
  H   H30       1.0  0.79237  0.26460  0.17277  1.0000
  H   H31       1.0  0.29044  0.23490  0.19225  1.0000
  H   H32       1.0  0.71239  0.24645  0.29972  1.0000
  H   H33       1.0  0.46580  0.34610  0.49618  1.0000
  H   H34       1.0  0.53240  0.65514  0.47824  1.0000
  H   H35       1.0  0.53533  0.34545  0.02676  1.0000
  H   H36       1.0  0.46592  0.65343  0.02894  1.0000
  H   H37       1.0  0.03185  0.15457  0.01841  1.0000
  H   H38       1.0  0.96815  0.84443  0.01279  1.0000
  H   H39       1.0  0.96319  0.15344  0.48399  1.0000
  H   H40       1.0  0.03578  0.84728  0.46536  1.0000
  N   N9        1.0  0.44841  0.49900  0.01067  1.0000
  N   N10       1.0  0.55223  0.49976  0.00242  1.0000
  N   N11       1.0  0.05208  0.00069  0.99969  1.0000
  N   N12       1.0  0.94812  0.99824  0.99813  1.0000
  Co  Co1       1.0  0.50042  0.49951  0.00819  1.0000
  Co  Co2       1.0  0.00014  0.99934  0.99796  1.0000
  N   N13       1.0  0.50010  0.56104  0.00648  1.0000
  N   N14       1.0  0.50054  0.43775  0.01075  1.0000
  N   N15       1.0  0.00096  0.93781  0.00118  1.0000
  N   N16       1.0  0.99922  0.06107  0.99592  1.0000
  H   H41       1.0  0.13089  0.96250  0.51682  1.0000
  H   H42       1.0  0.87014  0.95635  0.01119  1.0000
  H   H43       1.0  0.86811  0.03742  0.49353  1.0000
  H   H44       1.0  0.13020  0.04295  0.00157  1.0000
  H   H45       1.0  0.62955  0.54212  0.48662  1.0000
  H   H46       1.0  0.63118  0.46002  0.01200  1.0000
  H   H47       1.0  0.36871  0.45938  0.50896  1.0000
  H   H48       1.0  0.36956  0.53899  0.00779  1.0000
  C   C84       1.0  0.36012  0.36777  0.86567  1.0000
  C   C85       1.0  0.13863  0.13448  0.65595  1.0000
  C   C86       1.0  0.85687  0.12636  0.85269  1.0000
  C   C87       1.0  0.14043  0.87144  0.85270  1.0000
  C   C88       1.0  0.38732  0.39488  0.87633  1.0000
  C   C89       1.0  0.11157  0.10706  0.64854  1.0000
  C   C90       1.0  0.88400  0.09927  0.86321  1.0000
  C   C91       1.0  0.11322  0.89826  0.86318  1.0000
  H   H49       1.0  0.34217  0.36869  0.78329  1.0000
  H   H50       1.0  0.15671  0.13450  0.73806  1.0000
  H   H51       1.0  0.83808  0.12415  0.77317  1.0000
  H   H52       1.0  0.15731  0.87283  0.77089  1.0000
  H   H53       1.0  0.39100  0.41740  0.80168  1.0000
  H   H54       1.0  0.10824  0.08530  0.72573  1.0000
  H   H55       1.0  0.88680  0.07554  0.79113  1.0000
  H   H56       1.0  0.10852  0.92088  0.78880  1.0000
  C   C92       1.0  0.11959  0.16566  0.95851  1.0000
  C   C93       1.0  0.87696  0.16217  0.55080  1.0000
  C   C94       1.0  0.62078  0.66506  0.54652  1.0000
  C   C95       1.0  0.09228  0.13864  0.94706  1.0000
  C   C96       1.0  0.90377  0.13458  0.56236  1.0000
  C   C97       1.0  0.59370  0.63799  0.55731  1.0000
  H   H57       1.0  0.12166  0.18959  0.88751  1.0000
  H   H58       1.0  0.87476  0.18594  0.62302  1.0000
  H   H59       1.0  0.62416  0.68871  0.61909  1.0000
  H   H60       1.0  0.07390  0.14156  0.86652  1.0000
  H   H61       1.0  0.92164  0.13659  0.64487  1.0000
  H   H62       1.0  0.57678  0.64045  0.63880  1.0000
  N   N17       1.0  0.17342  0.18664  0.57148  1.0000
  N   N18       1.0  0.82567  0.81518  0.56254  1.0000
  N   N19       1.0  0.82336  0.18135  0.92661  1.0000
  N   N20       1.0  0.17635  0.81807  0.92937  1.0000
  N   N21       1.0  0.32494  0.31508  0.94412  1.0000
  N   N22       1.0  0.67479  0.68270  0.92804  1.0000
  N   N23       1.0  0.67743  0.32104  0.56558  1.0000
  N   N24       1.0  0.32357  0.68321  0.55982  1.0000
  C   C98       1.0  0.18642  0.20599  0.98079  1.0000
  C   C99       1.0  0.81224  0.79458  0.96970  1.0000
  C   C100      1.0  0.81170  0.20525  0.52230  1.0000
  C   C101      1.0  0.18796  0.79710  0.51929  1.0000
  C   C102      1.0  0.31149  0.29600  0.52696  1.0000
  C   C103      1.0  0.68665  0.70620  0.52197  1.0000
  C   C104      1.0  0.68849  0.29652  0.96688  1.0000
  C   C105      1.0  0.31184  0.70269  0.96579  1.0000
  C   C106      1.0  0.21894  0.22764  0.99509  1.0000
  C   C107      1.0  0.78121  0.23046  0.50464  1.0000
  C   C108      1.0  0.27964  0.27306  0.51091  1.0000
  C   C109      1.0  0.71858  0.72848  0.50702  1.0000
  C   C110      1.0  0.72042  0.27383  0.97934  1.0000
  C   C111      1.0  0.23961  0.22439  0.59779  1.0000
  C   C112      1.0  0.75921  0.77906  0.58762  1.0000
  C   C113      1.0  0.75832  0.22210  0.89628  1.0000
  C   C114      1.0  0.25827  0.27834  0.91581  1.0000
  C   C115      1.0  0.74351  0.28211  0.59020  1.0000
  C   C116      1.0  0.22763  0.25712  0.90349  1.0000
  C   C117      1.0  0.77300  0.25882  0.60127  1.0000
  C   C118      1.0  0.27008  0.24600  0.60859  1.0000
  C   C119      1.0  0.72851  0.75829  0.59862  1.0000
  C   C120      1.0  0.72821  0.24427  0.88593  1.0000
  C   C121      1.0  0.47224  0.41242  0.00537  1.0000
  C   C122      1.0  0.52821  0.58636  0.99637  1.0000
  C   C123      1.0  0.52810  0.41432  0.51808  1.0000
  C   C124      1.0  0.47072  0.58733  0.51355  1.0000
  C   C125      1.0  0.02662  0.08735  0.51706  1.0000
  C   C126      1.0  0.97252  0.91268  0.50329  1.0000
  C   C127      1.0  0.97044  0.08551  0.98626  1.0000
  C   C128      1.0  0.02959  0.91338  0.99122  1.0000
  C   C129      1.0  0.41038  0.39380  0.98337  1.0000
  C   C130      1.0  0.08831  0.10699  0.54200  1.0000
  C   C131      1.0  0.90827  0.10216  0.96618  1.0000
  C   C132      1.0  0.09138  0.89651  0.96900  1.0000
  C   C133      1.0  0.43778  0.42492  0.99735  1.0000
  C   C134      1.0  0.56248  0.57376  0.98561  1.0000
  C   C135      1.0  0.56244  0.42750  0.52180  1.0000
  C   C136      1.0  0.43653  0.57433  0.52390  1.0000
  C   C137      1.0  0.06120  0.07543  0.52970  1.0000
  C   C138      1.0  0.93805  0.92459  0.51315  1.0000
  C   C139      1.0  0.93621  0.07189  0.97998  1.0000
  C   C140      1.0  0.06372  0.92695  0.98315  1.0000
  C   C141      1.0  0.35471  0.33865  0.96166  1.0000
  C   C142      1.0  0.14376  0.16271  0.55696  1.0000
  C   C143      1.0  0.85273  0.15730  0.94468  1.0000
  C   C144      1.0  0.14706  0.84190  0.94757  1.0000
  C   C145      1.0  0.42709  0.46549  0.00170  1.0000
  C   C146      1.0  0.57332  0.53322  0.99206  1.0000
  C   C147      1.0  0.57275  0.46813  0.51173  1.0000
  C   C148      1.0  0.42600  0.53359  0.52083  1.0000
  C   C149      1.0  0.07246  0.03504  0.52711  1.0000
  C   C150      1.0  0.92678  0.96506  0.50929  1.0000
  C   C151      1.0  0.92626  0.03111  0.98952  1.0000
  C   C152      1.0  0.07383  0.96781  0.98893  1.0000
  C   C153      1.0  0.48328  0.37089  0.00803  1.0000
  C   C154      1.0  0.51725  0.62788  0.00019  1.0000
  C   C155      1.0  0.51748  0.37261  0.51716  1.0000
  C   C156      1.0  0.48128  0.62898  0.50720  1.0000
  C   C157      1.0  0.01523  0.12870  0.51261  1.0000
  C   C158      1.0  0.98398  0.87146  0.49289  1.0000
  C   C159      1.0  0.98070  0.12737  0.98865  1.0000
  C   C160      1.0  0.01929  0.87153  0.99135  1.0000
  C   C161      1.0  0.39171  0.47810  0.00117  1.0000
  C   C162      1.0  0.60876  0.52072  0.99542  1.0000
  C   C163      1.0  0.60797  0.48110  0.50398  1.0000
  C   C164      1.0  0.39068  0.52055  0.51888  1.0000
  C   C165      1.0  0.10801  0.02300  0.52868  1.0000
  C   C166      1.0  0.89122  0.97704  0.50589  1.0000
  C   C167      1.0  0.89116  0.01766  0.99568  1.0000
  C   C168      1.0  0.10898  0.98148  0.98970  1.0000
  H   H63       1.0  0.17288  0.20918  0.88653  1.0000
  H   H64       1.0  0.82311  0.79395  0.87258  1.0000
  H   H65       1.0  0.82281  0.20464  0.62141  1.0000
  H   H66       1.0  0.17678  0.79594  0.61584  1.0000
  H   H67       1.0  0.32327  0.29567  0.62505  1.0000
  H   H68       1.0  0.67530  0.70805  0.61806  1.0000
  H   H69       1.0  0.67497  0.29433  0.87218  1.0000
  H   H70       1.0  0.32358  0.70402  0.87027  1.0000
  H   H71       1.0  0.23225  0.20326  0.67228  1.0000
  H   H72       1.0  0.76704  0.80228  0.65711  1.0000
  H   H73       1.0  0.76431  0.19888  0.82571  1.0000
  H   H74       1.0  0.26502  0.30141  0.84643  1.0000
  H   H75       1.0  0.73713  0.30395  0.66458  1.0000
  H   H76       1.0  0.20990  0.26329  0.82276  1.0000
  H   H77       1.0  0.79010  0.26226  0.68572  1.0000
  H   H78       1.0  0.28698  0.24210  0.69322  1.0000
  H   H79       1.0  0.71185  0.76481  0.67885  1.0000
  H   H80       1.0  0.71022  0.23885  0.80517  1.0000
  H   H81       1.0  0.46641  0.34491  0.00317  1.0000
  H   H82       1.0  0.53378  0.65390  0.99140  1.0000
  H   H83       1.0  0.53448  0.34689  0.52399  1.0000
  H   H84       1.0  0.46446  0.65479  0.51319  1.0000
  H   H85       1.0  0.03167  0.15496  0.52191  1.0000
  H   H86       1.0  0.96771  0.84501  0.49377  1.0000
  H   H87       1.0  0.96361  0.15294  0.97909  1.0000
  H   H88       1.0  0.03628  0.84598  0.98136  1.0000
  N   N25       1.0  0.44740  0.50034  0.51312  1.0000
  N   N26       1.0  0.55119  0.50128  0.50352  1.0000
  N   N27       1.0  0.05157  0.00126  0.51479  1.0000
  N   N28       1.0  0.94752  0.99896  0.50192  1.0000
  Co  Co3       1.0  0.49926  0.50064  0.50839  1.0000
  Co  Co4       1.0  0.99948  0.00020  0.50731  1.0000
  N   N29       1.0  0.49908  0.56242  0.50570  1.0000
  N   N30       1.0  0.49952  0.43910  0.51121  1.0000
  N   N31       1.0  0.00045  0.93858  0.50145  1.0000
  N   N32       1.0  0.99857  0.06167  0.50614  1.0000
  H   H89       1.0  0.13129  0.96231  0.98307  1.0000
  H   H90       1.0  0.86951  0.95673  0.50866  1.0000
  H   H91       1.0  0.86882  0.03698  0.99295  1.0000
  H   H92       1.0  0.12981  0.04324  0.53558  1.0000
  H   H93       1.0  0.63069  0.54066  0.99076  1.0000
  H   H94       1.0  0.63014  0.46152  0.50614  1.0000
  H   H95       1.0  0.36968  0.45819  0.99628  1.0000
  H   H96       1.0  0.36863  0.54025  0.52188  1.0000
  C   C169      1.0  0.63412  0.61982  0.83948  1.0000
  C   C170      1.0  0.64269  0.65354  0.91546  1.0000
  C  Sn1       1.0  0.61681  0.66078  0.02625  1.0000
  C  Sn2       1.0  0.58938  0.63524  0.06141  1.0000
  C   C171      1.0  0.58856  0.60307  0.98481  1.0000
  C   C172      1.0  0.60708  0.59460  0.87412  1.0000
  H   H97       1.0  0.64846  0.61324  0.75388  1.0000
  O  Te1       1.0  0.62570  0.69460  0.10105  1.0000
  O  Te2       1.0  0.57063  0.64328  0.17167  1.0000
  H   H98       1.0  0.60046  0.56847  0.81536  1.0000
  Mg  Mg1       1.0  0.59250  0.69295  0.24246  1.0000
  C   C173      1.0  0.59974  0.35819  0.42685  1.0000
  C   C174      1.0  0.58966  0.38787  0.51436  1.0000
  C  Sn3       1.0  0.60996  0.39641  0.62468  1.0000
  C  Sn4       1.0  0.64091  0.37481  0.64755  1.0000
  C   C175      1.0  0.65078  0.34519  0.55937  1.0000
  C   C176      1.0  0.63027  0.33687  0.44930  1.0000
  H   H99       1.0  0.58388  0.35177  0.34165  1.0000
  O  Te3       1.0  0.59950  0.42615  0.71114  1.0000
  O  Te4       1.0  0.66168  0.38275  0.75701  1.0000
  H   H100      1.0  0.63809  0.31391  0.38153  1.0000
  Mg  Mg2       1.0  0.63651  0.42605  0.84644  1.0000
  C   C177      1.0  0.36380  0.62194  0.65790  1.0000
  C   C178      1.0  0.35551  0.65429  0.57668  1.0000
  C  Sn5       1.0  0.37447  0.66140  0.46638  1.0000
  C  Sn6       1.0  0.40223  0.63560  0.43709  1.0000
  C   C179      1.0  0.41030  0.60331  0.51891  1.0000
  C   C180      1.0  0.39116  0.59647  0.62905  1.0000
  H   H101      1.0  0.34899  0.61664  0.74308  1.0000
  O  Te5       1.0  0.36585  0.69387  0.38630  1.0000
  O  Te6       1.0  0.42159  0.64202  0.32745  1.0000
  H   H102      1.0  0.39757  0.57141  0.69187  1.0000
  Mg  Mg3       1.0  0.39989  0.69024  0.24810  1.0000
  C   C181      1.0  0.38640  0.65878  0.93465  1.0000
  C   C182      1.0  0.35163  0.65768  0.01963  1.0000
  C  Sn7       1.0  0.35069  0.63010  0.12126  1.0000
  C  Sn8       1.0  0.37756  0.60160  0.13788  1.0000
  C   C183      1.0  0.40471  0.60145  0.05239  1.0000
  C   C184      1.0  0.41292  0.63069  0.95100  1.0000
  H   H103      1.0  0.38695  0.68024  0.85624  1.0000
  O  Te7       1.0  0.32328  0.63093  0.20526  1.0000
  O  Te8       1.0  0.37726  0.57371  0.23866  1.0000
  H   H104      1.0  0.43403  0.63038  0.88527  1.0000
  Mg  Mg4       1.0  0.33438  0.58679  0.32790  1.0000
  C   C185      1.0  0.25074  0.72131  0.10278  1.0000
  C   C186      1.0  0.27435  0.72213  0.00362  1.0000
  C  Sn9       1.0  0.27831  0.75162  0.90350  1.0000
  C  Sn10      1.0  0.25056  0.77927  0.90293  1.0000
  C   C187      1.0  0.21956  0.77672  0.00263  1.0000
  C   C188      1.0  0.22337  0.74858  0.10232  1.0000
  H   H105      1.0  0.25370  0.69956  0.17996  1.0000
  O  Te9       1.0  0.30213  0.75201  0.80515  1.0000
  O  Te10      1.0  0.24639  0.80756  0.80406  1.0000
  H   H106      1.0  0.20510  0.74798  0.17913  1.0000
  Mg  Mg5       1.0  0.28552  0.79623  0.69151  1.0000
  C   C189      1.0  0.24878  0.77811  0.38094  1.0000
  C   C190      1.0  0.22301  0.77400  0.47121  1.0000
  C  Sn11      1.0  0.22676  0.74645  0.57249  1.0000
  C  Sn12      1.0  0.25690  0.72262  0.58337  1.0000
  C   C191      1.0  0.28254  0.72699  0.49261  1.0000
  C   C192      1.0  0.27852  0.75463  0.39162  1.0000
  H   H107      1.0  0.24569  0.79952  0.30284  1.0000
  O  Te11      1.0  0.20076  0.74271  0.66182  1.0000
  O  Te12      1.0  0.26131  0.69487  0.68367  1.0000
  H   H108      1.0  0.29849  0.75783  0.32180  1.0000
  Mg  Mg6       1.0  0.21865  0.70072  0.78146  1.0000
  C   C193      1.0  0.90175  0.85217  0.42440  1.0000
  C   C194      1.0  0.90965  0.88614  0.50021  1.0000
  C  Sn13      1.0  0.89078  0.89477  0.60983  1.0000
  C  Sn14      1.0  0.86352  0.86884  0.64396  1.0000
  C   C195      1.0  0.85583  0.83492  0.56754  1.0000
  C   C196      1.0  0.87487  0.82657  0.45803  1.0000
  H   H109      1.0  0.91649  0.84570  0.33971  1.0000
  O  Te13      1.0  0.89901  0.92884  0.68447  1.0000
  O  Te14      1.0  0.84426  0.87675  0.75305  1.0000
  H   H110      1.0  0.86876  0.80026  0.39940  1.0000
  Mg  Mg7       1.0  0.86530  0.92687  0.82409  1.0000
  C   C197      1.0  0.74759  0.72418  0.87869  1.0000
  C   C198      1.0  0.72552  0.72284  0.98275  1.0000
  C  Sn15      1.0  0.72337  0.74689  0.08928  1.0000
  C  Sn16      1.0  0.75140  0.77428  0.09137  1.0000
  C   C199      1.0  0.78086  0.77693  0.98675  1.0000
  C   C200      1.0  0.77524  0.75120  0.88066  1.0000
  H   H111      1.0  0.74324  0.70429  0.79658  1.0000
  O  Te15      1.0  0.70108  0.74515  0.19245  1.0000
  O  Te16      1.0  0.75737  0.80019  0.19660  1.0000
  H   H112      1.0  0.79232  0.75226  0.80007  1.0000
  Mg  Mg8       1.0  0.71987  0.78652  0.31404  1.0000
  C   C201      1.0  0.38637  0.33902  0.57198  1.0000
  C   C202      1.0  0.35922  0.33857  0.48079  1.0000
  C  Sn17      1.0  0.35803  0.36677  0.38074  1.0000
  C  Sn18      1.0  0.38455  0.39592  0.37207  1.0000
  C   C203      1.0  0.41162  0.39610  0.46372  1.0000
  C   C204      1.0  0.41256  0.36775  0.56347  1.0000
  H   H113      1.0  0.38711  0.31707  0.64912  1.0000
  O  Te17      1.0  0.33070  0.36591  0.29048  1.0000
  O  Te18      1.0  0.38400  0.42444  0.27303  1.0000
  H   H114      1.0  0.43359  0.36809  0.63401  1.0000
  Mg  Mg9       1.0  0.34137  0.41104  0.17323  1.0000
  C   C205      1.0  0.09891  0.85424  0.56404  1.0000
  C   C206      1.0  0.09249  0.89045  0.49909  1.0000
  C  Sn19      1.0  0.11283  0.90192  0.39634  1.0000
  C  Sn20      1.0  0.14008  0.87659  0.35811  1.0000
  C   C207      1.0  0.14628  0.84041  0.42364  1.0000
  C   C208      1.0  0.12578  0.82923  0.52635  1.0000
  H   H115      1.0  0.08304  0.84557  0.64346  1.0000
  O  Te19      1.0  0.10607  0.93820  0.33254  1.0000
  O  Te20      1.0  0.16080  0.88732  0.25571  1.0000
  H   H116      1.0  0.13074  0.80118  0.57657  1.0000
  Mg  Mg10      1.0  0.14144  0.93972  0.19884  1.0000
  C   C209      1.0  0.86668  0.87706  0.15954  1.0000
  C   C210      1.0  0.85516  0.84760  0.07133  1.0000
  C  Sn21      1.0  0.88133  0.84076  0.96092  1.0000
  C  Sn22      1.0  0.91205  0.86233  0.93869  1.0000
  C   C211      1.0  0.91584  0.89020  0.02757  1.0000
  C   C212      1.0  0.89699  0.89834  0.13772  1.0000
  H   H117      1.0  0.85211  0.88334  0.24480  1.0000
  O  Te21      1.0  0.86944  0.81124  0.87376  1.0000
  O  Te22      1.0  0.93118  0.85456  0.82916  1.0000
  H   H118      1.0  0.90593  0.92113  0.20604  1.0000
  Mg  Mg11      1.0  0.90446  0.81153  0.73865  1.0000
  C   C213      1.0  0.61441  0.34109  0.93010  1.0000
  C   C214      1.0  0.63454  0.33868  0.01899  1.0000
  C  Sn23      1.0  0.63577  0.36534  0.12412  1.0000
  C  Sn24      1.0  0.60875  0.39339  0.14032  1.0000
  C   C215      1.0  0.58118  0.39403  0.05091  1.0000
  C   C216      1.0  0.58774  0.36873  0.94603  1.0000
  H   H119      1.0  0.61365  0.32034  0.84899  1.0000
  O  Te23      1.0  0.66361  0.36405  0.21200  1.0000
  O  Te24      1.0  0.60932  0.42037  0.24455  1.0000
  H   H120      1.0  0.56631  0.36942  0.87727  1.0000
  Mg  Mg12      1.0  0.65276  0.40694  0.33842  1.0000
