data_image0
_chemical_formula_structural       N16C16H16C6Sn2C2HTe2HMgC2Sn2C2HTe2HMgC2Sn2C2HTe2HMgC2Sn2C2HTe2HMgC2Sn2C2HTe2HMgC2Sn2C2HTe2HMgC2Sn2C2HTe2HMgC2Sn2C2HTe2HMgC2Sn2C2HTe2HMgC2Sn2C2HTe2HMgC2Sn2C2HTe2HMgC2Sn2C2HTe2HMgC2Sn2C2HTe2HMgC2Sn2C2HTe2HMgC2Sn2C2HTe2HMgC2Sn2C2HTe2HMgC2Sn2C2HTe2HMgC2Sn2C2HTe2HMgC2Sn2C2HTe2HMgC2Sn2C2HTe2HMgC2Sn2C2HTe2HMgC2Sn2C2HTe2HMgC2Sn2C2HTe2HMgC2Sn2C2HTe2HMgC2Sn2C2HTe2HMgC2Sn2C2HTe2HMgC2Sn2C2HTe2HMgC2Sn2C2HTe2HMgC2Sn2C2HTe2HMgC2Sn2C2HTe2HMgC2Sn2C2HTe2HMgC2Sn2C2HTe2HMgC2Sn2C2HTe2HMgC2Sn2C2HTe2HMgC2Sn2C2HTe2HMgC2Sn2C2HTe2HMgC2Sn2C2HTe2HMgC2Sn2C2HTe2HMgC2Sn2C2HTe2HMgC2Sn2C2HTe2HMg
_chemical_formula_sum              "N16 C180 H96 Sn80 Te80 Mg40"
_cell_length_a       27.0456
_cell_length_b       26.9706
_cell_length_c       8.53838
_cell_angle_alpha    90.0437
_cell_angle_beta     90.3297
_cell_angle_gamma    90.5774

_symmetry_space_group_name_H-M    'P1'
_space_group_IT_number       1

loop_
  _space_group_symop_operation_xyz
  'x, y, z'

loop_
  _atom_site_type_symbol
  _atom_site_label
  _atom_site_symmetry_multiplicity
  _atom_site_fract_x
  _atom_site_fract_y
  _atom_site_fract_z
  _atom_site_occupancy
  N   N1        1.0  0.52616  0.64310  0.88326  1.0000
  N   N2        1.0  0.97113  0.85499  0.38882  1.0000
  N   N3        1.0  0.35816  0.02948  0.14030  1.0000
  N   N4        1.0  0.14244  0.47445  0.63774  1.0000
  N   N5        1.0  0.47295  0.86053  0.36391  1.0000
  N   N6        1.0  0.02452  0.63924  0.86491  1.0000
  N   N7        1.0  0.63904  0.47593  0.11435  1.0000
  N   N8        1.0  0.85840  0.02386  0.61477  1.0000
  N   N9        1.0  0.02664  0.14132  0.38923  1.0000
  N   N10       1.0  0.47424  0.35795  0.88876  1.0000
  N   N11       1.0  0.85884  0.52390  0.63297  1.0000
  N   N12       1.0  0.64347  0.97424  0.13516  1.0000
  N   N13       1.0  0.97493  0.35648  0.86412  1.0000
  N   N14       1.0  0.53217  0.14610  0.36099  1.0000
  N   N15       1.0  0.14057  0.97247  0.61742  1.0000
  N   N16       1.0  0.35731  0.52768  0.11480  1.0000
  C   C1        1.0  0.49264  0.64389  0.99140  1.0000
  C   C2        1.0  0.00617  0.85704  0.49319  1.0000
  C   C3        1.0  0.35894  0.99527  0.24684  1.0000
  C   C4        1.0  0.14111  0.50863  0.74480  1.0000
  C   C5        1.0  0.50838  0.86270  0.26219  1.0000
  C   C6        1.0  0.99117  0.63911  0.75504  1.0000
  C   C7        1.0  0.63974  0.50960  0.00594  1.0000
  C   C8        1.0  0.86009  0.98910  0.51003  1.0000
  C   C9        1.0  0.99153  0.13873  0.49205  1.0000
  C   C10       1.0  0.50770  0.35987  0.99816  1.0000
  C   C11       1.0  0.85833  0.48981  0.73992  1.0000
  C   C12       1.0  0.64176  0.00928  0.23879  1.0000
  C   C13       1.0  0.00776  0.35603  0.75390  1.0000
  C   C14       1.0  0.49604  0.13931  0.26246  1.0000
  C   C15       1.0  0.14075  0.00641  0.50984  1.0000
  C   C16       1.0  0.35812  0.49354  0.00754  1.0000
  H   H1        1.0  0.45892  0.66611  0.97991  1.0000
  H   H2        1.0  0.04168  0.83817  0.47758  1.0000
  H   H3        1.0  0.33805  0.96028  0.23412  1.0000
  H   H4        1.0  0.16057  0.54440  0.73305  1.0000
  H   H5        1.0  0.54359  0.84338  0.27969  1.0000
  H   H6        1.0  0.95688  0.66044  0.76401  1.0000
  H   H7        1.0  0.66243  0.54359  0.01573  1.0000
  H   H8        1.0  0.84071  0.95332  0.52394  1.0000
  H   H9        1.0  0.95572  0.15695  0.47539  1.0000
  H   H10       1.0  0.54340  0.34105  0.98847  1.0000
  H   H11       1.0  0.83616  0.45561  0.72767  1.0000
  H   H12       1.0  0.66112  0.04500  0.22348  1.0000
  H   H13       1.0  0.04184  0.33435  0.76302  1.0000
  H   H14       1.0  0.45846  0.15240  0.28541  1.0000
  H   H15       1.0  0.16246  0.04092  0.52209  1.0000
  H   H16       1.0  0.33842  0.45796  0.01985  1.0000
  C   C17       1.0  0.49756  0.50285  0.49921  1.0000
  C   C18       1.0  0.99940  0.99818  0.00094  1.0000
  C   C19       1.0  0.50267  0.00140  0.74805  1.0000
  C   C20       1.0  0.99990  0.49777  0.24830  1.0000
  C   C21       1.0  0.45970  0.68861  0.56006  1.0000
  C   C22       1.0  0.49592  0.70795  0.46059  1.0000
  C  Sn1       1.0  0.54594  0.70414  0.50003  1.0000
  C  Sn2       1.0  0.55985  0.68049  0.64173  1.0000
  C   C23       1.0  0.52334  0.66123  0.74040  1.0000
  C   C24       1.0  0.47339  0.66526  0.69982  1.0000
  H   H17       1.0  0.42105  0.69170  0.52864  1.0000
  O  Te1       1.0  0.58165  0.72368  0.39933  1.0000
  O  Te2       1.0  0.60958  0.67615  0.68397  1.0000
  H   H18       1.0  0.44536  0.65025  0.77681  1.0000
  Mg  Mg1       1.0  0.64460  0.70865  0.50816  1.0000
  C   C25       1.0  0.93253  0.80518  0.03626  1.0000
  C   C26       1.0  0.97646  0.79662  0.94671  1.0000
  C  Sn3       1.0  0.02171  0.80461  0.01038  1.0000
  C  Sn4       1.0  0.02661  0.82199  0.16664  1.0000
  C   C27       1.0  0.98426  0.83066  0.25530  1.0000
  C   C28       1.0  0.93733  0.82231  0.19041  1.0000
  H   H19       1.0  0.89804  0.79895  0.98610  1.0000
  O  Te3       1.0  0.06520  0.79589  0.91927  1.0000
  O  Te4       1.0  0.07321  0.83052  0.23320  1.0000
  H   H20       1.0  0.90474  0.82910  0.25980  1.0000
  Mg  Mg2       1.0  0.11892  0.81283  0.06215  1.0000
  C   C29       1.0  0.31688  0.06872  0.87099  1.0000
  C   C30       1.0  0.33066  0.03200  0.97756  1.0000
  C  Sn5       1.0  0.33767  0.98199  0.93542  1.0000
  C  Sn6       1.0  0.32052  0.96862  0.78368  1.0000
  C   C31       1.0  0.29680  0.00564  0.67787  1.0000
  C   C32       1.0  0.29997  0.05556  0.72128  1.0000
  H   H21       1.0  0.31935  0.10736  0.90453  1.0000
  O  Te5       1.0  0.34976  0.94551  0.04335  1.0000
  O  Te6       1.0  0.31713  0.91892  0.73848  1.0000
  H   H22       1.0  0.28932  0.08399  0.63870  1.0000
  Mg  Mg3       1.0  0.34038  0.88308  0.92690  1.0000
  C   C33       1.0  0.17290  0.43627  0.35542  1.0000
  C   C34       1.0  0.16880  0.47177  0.47383  1.0000
  C  Sn7       1.0  0.18159  0.52122  0.44490  1.0000
  C  Sn8       1.0  0.19877  0.53529  0.29450  1.0000
  C   C35       1.0  0.20270  0.49951  0.17679  1.0000
  C   C36       1.0  0.18982  0.45012  0.20703  1.0000
  H   H23       1.0  0.16291  0.39806  0.37878  1.0000
  O  Te7       1.0  0.17729  0.55621  0.56454  1.0000
  O  Te8       1.0  0.21179  0.58447  0.26238  1.0000
  H   H24       1.0  0.19297  0.42265  0.11529  1.0000
  Mg  Mg4       1.0  0.19955  0.61859  0.46365  1.0000
  C   C37       1.0  0.43396  0.81021  0.71335  1.0000
  C   C38       1.0  0.47605  0.79575  0.79654  1.0000
  C  Sn9       1.0  0.52313  0.80538  0.73653  1.0000
  C  Sn10      1.0  0.52803  0.82997  0.59052  1.0000
  C   C39       1.0  0.48569  0.84432  0.50824  1.0000
  C   C40       1.0  0.43876  0.83448  0.56935  1.0000
  H   H25       1.0  0.39765  0.80262  0.76065  1.0000
  O  Te9       1.0  0.56479  0.79066  0.82115  1.0000
  O  Te10      1.0  0.57463  0.84008  0.52786  1.0000
  H   H26       1.0  0.40618  0.84571  0.50496  1.0000
  Mg  Mg5       1.0  0.62033  0.81271  0.68707  1.0000
  C   C41       1.0  0.96064  0.67646  0.10291  1.0000
  C   C42       1.0  0.00337  0.66679  0.01736  1.0000
  C  Sn11      1.0  0.04999  0.67425  0.08524  1.0000
  C  Sn12      1.0  0.05377  0.69169  0.24171  1.0000
  C   C43       1.0  0.01079  0.70122  0.32635  1.0000
  C   C44       1.0  0.96434  0.69365  0.25727  1.0000
  H   H27       1.0  0.92469  0.67057  0.04951  1.0000
  O  Te11      1.0  0.09413  0.66469  0.99809  1.0000
  O  Te12      1.0  0.09989  0.69945  0.31243  1.0000
  H   H28       1.0  0.93125  0.70110  0.32357  1.0000
  Mg  Mg6       1.0  0.14681  0.68077  0.14583  1.0000
  C   C45       1.0  0.68869  0.54144  0.43592  1.0000
  C   C46       1.0  0.70041  0.50434  0.54369  1.0000
  C  Sn13      1.0  0.69517  0.45441  0.50253  1.0000
  C  Sn14      1.0  0.67788  0.44149  0.35054  1.0000
  C   C47       1.0  0.66628  0.47888  0.24353  1.0000
  C   C48       1.0  0.67165  0.52873  0.28597  1.0000
  H   H29       1.0  0.69287  0.58000  0.46871  1.0000
  O  Te13      1.0  0.70703  0.41781  0.61165  1.0000
  O  Te14      1.0  0.67231  0.39188  0.30630  1.0000
  H   H30       1.0  0.66260  0.55745  0.20246  1.0000
  Mg  Mg7       1.0  0.69327  0.35541  0.49619  1.0000
  C   C49       1.0  0.80973  0.06206  0.96516  1.0000
  C   C50       1.0  0.79219  0.01960  0.04646  1.0000
  C  Sn15      1.0  0.81241  0.97267  0.98509  1.0000
  C  Sn16      1.0  0.83699  0.96774  0.83963  1.0000
  C   C51       1.0  0.84256  0.01019  0.75925  1.0000
  C   C52       1.0  0.83399  0.05724  0.82171  1.0000
  H   H31       1.0  0.80131  0.09820  0.01351  1.0000
  O  Te15      1.0  0.79462  0.93064  0.06782  1.0000
  O  Te16      1.0  0.84584  0.92102  0.77564  1.0000
  H   H32       1.0  0.84620  0.08990  0.75878  1.0000
  Mg  Mg8       1.0  0.81704  0.87522  0.93245  1.0000
  C   C53       1.0  0.06722  0.17495  0.11309  1.0000
  C   C54       1.0  0.03038  0.16776  0.22515  1.0000
  C  Sn17      1.0  0.98093  0.17674  0.18759  1.0000
  C  Sn18      1.0  0.96824  0.19319  0.03491  1.0000
  C   C55       1.0  0.00718  0.20049  0.92361  1.0000
  C   C56       1.0  0.05655  0.19142  0.96245  1.0000
  H   H33       1.0  0.10542  0.16790  0.14311  1.0000
  O  Te17      1.0  0.94459  0.16939  0.30096  1.0000
  O  Te18      1.0  0.92092  0.20269  0.99422  1.0000
  H   H34       1.0  0.08506  0.19695  0.87564  1.0000
  Mg  Mg9       1.0  0.88283  0.18700  0.18927  1.0000
  C   C57       1.0  0.54135  0.30601  0.57666  1.0000
  C   C58       1.0  0.50492  0.29327  0.46664  1.0000
  C  Sn19      1.0  0.45547  0.30482  0.49399  1.0000
  C  Sn20      1.0  0.44236  0.32958  0.63418  1.0000
  C   C59       1.0  0.47908  0.34220  0.74346  1.0000
  C   C60       1.0  0.52845  0.33045  0.71493  1.0000
  H   H35       1.0  0.57955  0.29695  0.55456  1.0000
  O  Te19      1.0  0.41955  0.29181  0.38285  1.0000
  O  Te20      1.0  0.39322  0.34158  0.66445  1.0000
  H   H36       1.0  0.55664  0.34035  0.80009  1.0000
  Mg  Mg10      1.0  0.35760  0.31610  0.47731  1.0000
  C   C61       1.0  0.82015  0.46193  0.38839  1.0000
  C   C62       1.0  0.83514  0.50402  0.47235  1.0000
  C  Sn21      1.0  0.82588  0.55132  0.41312  1.0000
  C  Sn22      1.0  0.80115  0.55646  0.26712  1.0000
  C   C63       1.0  0.78628  0.51412  0.18409  1.0000
  C   C64       1.0  0.79574  0.46697  0.24442  1.0000
  H   H37       1.0  0.82745  0.42544  0.43510  1.0000
  O  Te21      1.0  0.84112  0.59298  0.49848  1.0000
  O  Te22      1.0  0.79142  0.60330  0.20523  1.0000
  H   H38       1.0  0.78410  0.43439  0.17944  1.0000
  Mg  Mg11      1.0  0.81944  0.64889  0.36529  1.0000
  C   C65       1.0  0.68237  0.93381  0.86623  1.0000
  C   C66       1.0  0.66969  0.97111  0.97188  1.0000
  C  Sn23      1.0  0.66388  0.02095  0.92896  1.0000
  C  Sn24      1.0  0.68113  0.03355  0.77735  1.0000
  C   C67       1.0  0.70373  0.99595  0.67247  1.0000
  C   C68       1.0  0.69937  0.94620  0.71665  1.0000
  H   H39       1.0  0.67897  0.89531  0.90037  1.0000
  O  Te23      1.0  0.64925  0.05749  0.03597  1.0000
  O  Te24      1.0  0.68570  0.08306  0.73139  1.0000
  H   H40       1.0  0.70915  0.91732  0.63479  1.0000
  Mg  Mg12      1.0  0.66368  0.11990  0.91870  1.0000
  C   C69       1.0  0.04154  0.30363  0.17727  1.0000
  C   C70       1.0  0.00594  0.29618  0.29311  1.0000
  C  Sn25      1.0  0.95631  0.30656  0.26255  1.0000
  C  Sn26      1.0  0.94216  0.32472  0.11312  1.0000
  C   C71       1.0  0.97987  0.33227  0.99798  1.0000
  C   C72       1.0  0.02762  0.32152  0.02983  1.0000
  H   H41       1.0  0.07989  0.29549  0.20187  1.0000
  O  Te25      1.0  0.92122  0.29893  0.37963  1.0000
  O  Te26      1.0  0.89281  0.33537  0.07941  1.0000
  H   H42       1.0  0.05698  0.32752  0.94008  1.0000
  Mg  Mg13      1.0  0.85860  0.31890  0.27734  1.0000
  C   C73       1.0  0.46895  0.18419  0.60239  1.0000
  C   C74       1.0  0.51123  0.17207  0.51782  1.0000
  C  Sn27      1.0  0.55784  0.17475  0.58896  1.0000
  C  Sn28      1.0  0.56206  0.18985  0.74774  1.0000
  C   C75       1.0  0.51953  0.20186  0.83137  1.0000
  C   C76       1.0  0.47308  0.19906  0.75902  1.0000
  H   H43       1.0  0.43300  0.18200  0.54645  1.0000
  O  Te27      1.0  0.59971  0.16253  0.50275  1.0000
  O  Te28      1.0  0.60818  0.19283  0.82174  1.0000
  H   H44       1.0  0.44034  0.20841  0.82456  1.0000
  Mg  Mg14      1.0  0.65440  0.17240  0.65524  1.0000
  C   C77       1.0  0.18810  0.03862  0.94128  1.0000
  C   C78       1.0  0.19875  0.00144  0.04881  1.0000
  C  Sn29      1.0  0.20451  0.95145  0.00736  1.0000
  C  Sn30      1.0  0.18925  0.93856  0.85534  1.0000
  C   C79       1.0  0.17691  0.97578  0.74857  1.0000
  C   C80       1.0  0.17127  0.02568  0.79129  1.0000
  H   H45       1.0  0.19154  0.07724  0.97429  1.0000
  O  Te29      1.0  0.21710  0.91503  0.11624  1.0000
  O  Te30      1.0  0.18463  0.88888  0.81082  1.0000
  H   H46       1.0  0.16165  0.05426  0.70798  1.0000
  Mg  Mg15      1.0  0.20452  0.85246  0.00044  1.0000
  C   C81       1.0  0.31555  0.46485  0.35256  1.0000
  C   C82       1.0  0.32984  0.50717  0.26932  1.0000
  C  Sn31      1.0  0.32835  0.55382  0.34030  1.0000
  C  Sn32      1.0  0.31224  0.55806  0.49755  1.0000
  C   C83       1.0  0.29805  0.51549  0.57985  1.0000
  C   C84       1.0  0.29967  0.46899  0.50768  1.0000
  H   H47       1.0  0.31683  0.42887  0.29676  1.0000
  O  Te31      1.0  0.34275  0.59572  0.25543  1.0000
  O  Te32      1.0  0.31040  0.60422  0.57135  1.0000
  H   H48       1.0  0.28863  0.43623  0.57219  1.0000
  Mg  Mg16      1.0  0.33376  0.65048  0.40704  1.0000
  C   C85       1.0  0.44662  0.76830  0.11483  1.0000
  C   C86       1.0  0.48261  0.77658  0.00076  1.0000
  C  Sn33      1.0  0.53041  0.75846  0.02157  1.0000
  C  Sn34      1.0  0.54229  0.73155  0.15924  1.0000
  C   C87       1.0  0.50601  0.72343  0.27260  1.0000
  C   C88       1.0  0.45829  0.74174  0.25061  1.0000
  H   H49       1.0  0.40969  0.78244  0.09778  1.0000
  O  Te33      1.0  0.56775  0.76735  0.90647  1.0000
  O  Te34      1.0  0.58977  0.71301  0.18299  1.0000
  H   H50       1.0  0.43043  0.73529  0.33890  1.0000
  Mg  Mg17      1.0  0.62727  0.73464  0.99237  1.0000
  C   C89       1.0  0.04736  0.73566  0.61083  1.0000
  C   C90       1.0  0.01102  0.72527  0.49817  1.0000
  C  Sn35      1.0  0.96239  0.74056  0.52104  1.0000
  C  Sn36      1.0  0.95002  0.76673  0.65937  1.0000
  C   C91       1.0  0.98665  0.77697  0.77132  1.0000
  C   C92       1.0  0.03520  0.76149  0.74727  1.0000
  H   H51       1.0  0.08493  0.72371  0.59219  1.0000
  O  Te35      1.0  0.92653  0.72986  0.40732  1.0000
  O  Te36      1.0  0.90170  0.78246  0.68518  1.0000
  H   H52       1.0  0.06333  0.76956  0.83447  1.0000
  Mg  Mg18      1.0  0.86585  0.75903  0.49587  1.0000
  C   C93       1.0  0.25414  0.04922  0.30873  1.0000
  C   C94       1.0  0.23499  0.00714  0.23346  1.0000
  C  Sn37      1.0  0.24203  0.96195  0.31290  1.0000
  C  Sn38      1.0  0.25851  0.95896  0.47064  1.0000
  C   C95       1.0  0.26753  0.00128  0.54494  1.0000
  C   C96       1.0  0.27039  0.04631  0.46432  1.0000
  H   H53       1.0  0.25633  0.08407  0.24640  1.0000
  O  Te37      1.0  0.22281  0.92026  0.23593  1.0000
  O  Te38      1.0  0.25591  0.91427  0.55281  1.0000
  H   H54       1.0  0.28519  0.07889  0.52266  1.0000
  Mg  Mg19      1.0  0.22686  0.86773  0.39734  1.0000
  C   C97       1.0  0.23818  0.45062  0.89453  1.0000
  C   C98       1.0  0.22962  0.48638  0.00998  1.0000
  C  Sn39      1.0  0.24350  0.53621  0.98006  1.0000
  C  Sn40      1.0  0.26264  0.54987  0.83168  1.0000
  C   C99       1.0  0.26921  0.51356  0.71692  1.0000
  C   C100      1.0  0.25704  0.46406  0.74813  1.0000
  H   H55       1.0  0.22874  0.41232  0.91863  1.0000
  O  Te39      1.0  0.23473  0.57146  0.09674  1.0000
  O  Te40      1.0  0.27498  0.59915  0.79863  1.0000
  H   H56       1.0  0.26223  0.43618  0.65868  1.0000
  Mg  Mg20      1.0  0.25886  0.63406  0.99565  1.0000
  C   C101      1.0  0.73030  0.45125  0.86263  1.0000
  C   C102      1.0  0.72490  0.48747  0.74704  1.0000
  C  Sn41      1.0  0.74621  0.53446  0.76729  1.0000
  C  Sn42      1.0  0.77342  0.54527  0.90595  1.0000
  C   C103      1.0  0.77682  0.50850  0.02085  1.0000
  C   C104      1.0  0.75714  0.46186  0.99940  1.0000
  H   H57       1.0  0.71369  0.41495  0.84602  1.0000
  O  Te41      1.0  0.74045  0.57023  0.65066  1.0000
  O  Te42      1.0  0.79512  0.59192  0.92918  1.0000
  H   H58       1.0  0.75953  0.43355  0.08888  1.0000
  Mg  Mg21      1.0  0.77691  0.62834  0.73638  1.0000
  C   C105      1.0  0.76505  0.05050  0.36037  1.0000
  C   C106      1.0  0.77464  0.01355  0.25012  1.0000
  C  Sn43      1.0  0.76783  0.96505  0.27457  1.0000
  C  Sn44      1.0  0.74088  0.95344  0.41204  1.0000
  C   C107      1.0  0.73145  0.99067  0.52158  1.0000
  C   C108      1.0  0.73845  0.03908  0.49597  1.0000
  H   H59       1.0  0.77821  0.08796  0.34053  1.0000
  O  Te43      1.0  0.77776  0.92859  0.16324  1.0000
  O  Te44      1.0  0.72359  0.90527  0.43938  1.0000
  H   H60       1.0  0.73099  0.06768  0.58130  1.0000
  Mg  Mg22      1.0  0.74646  0.86839  0.25318  1.0000
  C   C109      1.0  0.05454  0.23441  0.63979  1.0000
  C   C110      1.0  0.01886  0.22846  0.75620  1.0000
  C  Sn45      1.0  0.96982  0.24164  0.72722  1.0000
  C  Sn46      1.0  0.95637  0.26112  0.57883  1.0000
  C   C111      1.0  0.99233  0.26689  0.46311  1.0000
  C   C112      1.0  0.04130  0.25360  0.49338  1.0000
  H   H61       1.0  0.09241  0.22410  0.66316  1.0000
  O  Te45      1.0  0.93465  0.23548  0.84485  1.0000
  O  Te46      1.0  0.90763  0.27457  0.54671  1.0000
  H   H62       1.0  0.06891  0.25818  0.40319  1.0000
  Mg  Mg23      1.0  0.87302  0.25922  0.74482  1.0000
  C   C113      1.0  0.45239  0.25312  0.15403  1.0000
  C   C114      1.0  0.48863  0.26588  0.26463  1.0000
  C  Sn47      1.0  0.53868  0.26042  0.22948  1.0000
  C  Sn48      1.0  0.55258  0.24185  0.08075  1.0000
  C   C115      1.0  0.51786  0.22949  0.97088  1.0000
  C   C116      1.0  0.46607  0.23482  0.00729  1.0000
  H   H63       1.0  0.41373  0.25747  0.18216  1.0000
  O  Te47      1.0  0.57441  0.27333  0.34136  1.0000
  O  Te48      1.0  0.60232  0.23605  0.04254  1.0000
  H   H64       1.0  0.43984  0.22523  0.92160  1.0000
  Mg  Mg24      1.0  0.63738  0.25874  0.23419  1.0000
  C   C117      1.0  0.44964  0.60369  0.26666  1.0000
  C   C118      1.0  0.48728  0.61647  0.16230  1.0000
  C  Sn49      1.0  0.53238  0.59170  0.16698  1.0000
  C  Sn50      1.0  0.53983  0.55343  0.27831  1.0000
  C   C119      1.0  0.50193  0.54089  0.38213  1.0000
  C   C120      1.0  0.45695  0.56593  0.37646  1.0000
  H   H65       1.0  0.41482  0.62304  0.26222  1.0000
  O  Te49      1.0  0.56960  0.60496  0.06190  1.0000
  O  Te50      1.0  0.58454  0.52806  0.28550  1.0000
  H   H66       1.0  0.42780  0.55600  0.45720  1.0000
  Mg  Mg25      1.0  0.62406  0.55957  0.11760  1.0000
  C   C121      1.0  0.95046  0.91993  0.69664  1.0000
  C   C122      1.0  0.99038  0.89321  0.63851  1.0000
  C  Sn51      1.0  0.03618  0.89515  0.71495  1.0000
  C  Sn52      1.0  0.04199  0.92440  0.85214  1.0000
  C   C123      1.0  0.00181  0.95096  0.90942  1.0000
  C   C124      1.0  0.95616  0.94877  0.83197  1.0000
  H   H67       1.0  0.91513  0.91822  0.63677  1.0000
  O  Te51      1.0  0.07568  0.86824  0.65526  1.0000
  O  Te52      1.0  0.08734  0.92698  0.93089  1.0000
  H   H68       1.0  0.92524  0.96944  0.87707  1.0000
  Mg  Mg26      1.0  0.13018  0.88367  0.80398  1.0000
  C   C125      1.0  0.44352  0.05092  0.51198  1.0000
  C   C126      1.0  0.45409  0.01427  0.62246  1.0000
  C  Sn53      1.0  0.44208  0.96735  0.61023  1.0000
  C  Sn54      1.0  0.40886  0.95704  0.48491  1.0000
  C   C127      1.0  0.39855  0.99395  0.37492  1.0000
  C   C128      1.0  0.41077  0.04078  0.38830  1.0000
  H   H69       1.0  0.46076  0.08715  0.52227  1.0000
  O  Te53      1.0  0.45304  0.93116  0.72165  1.0000
  O  Te54      1.0  0.38631  0.91045  0.46985  1.0000
  H   H70       1.0  0.40260  0.06914  0.30269  1.0000
  Mg  Mg27      1.0  0.41302  0.87335  0.65103  1.0000
  C   C129      1.0  0.09893  0.54909  0.02168  1.0000
  C   C130      1.0  0.11408  0.51215  0.91650  1.0000
  C  Sn55      1.0  0.08973  0.46623  0.91843  1.0000
  C  Sn56      1.0  0.04949  0.45725  0.02780  1.0000
  C   C131      1.0  0.03641  0.49472  0.13246  1.0000
  C   C132      1.0  0.06104  0.54053  0.12955  1.0000
  H   H71       1.0  0.11797  0.58455  0.01938  1.0000
  O  Te55      1.0  0.10352  0.42946  0.81257  1.0000
  O  Te56      1.0  0.02453  0.41170  0.03223  1.0000
  H   H72       1.0  0.05069  0.56934  0.21093  1.0000
  Mg  Mg28      1.0  0.05853  0.37350  0.86427  1.0000
  C   C133      1.0  0.45314  0.94258  0.98628  1.0000
  C   C134      1.0  0.49155  0.95747  0.88760  1.0000
  C  Sn57      1.0  0.53831  0.93637  0.90252  1.0000
  C  Sn58      1.0  0.54483  0.89942  0.01847  1.0000
  C   C135      1.0  0.50614  0.88476  0.11655  1.0000
  C   C136      1.0  0.45950  0.90613  0.10063  1.0000
  H   H73       1.0  0.41704  0.95909  0.97392  1.0000
  O  Te57      1.0  0.57629  0.95168  0.80301  1.0000
  O  Te58      1.0  0.59119  0.87771  0.03590  1.0000
  H   H74       1.0  0.42975  0.89457  0.17698  1.0000
  Mg  Mg29      1.0  0.63302  0.91117  0.87241  1.0000
  C   C137      1.0  0.95041  0.57982  0.40994  1.0000
  C   C138      1.0  0.98972  0.55062  0.36015  1.0000
  C  Sn59      1.0  0.03392  0.54993  0.44559  1.0000
  C  Sn60      1.0  0.03874  0.57905  0.58339  1.0000
  C   C139      1.0  0.99919  0.60812  0.63227  1.0000
  C   C140      1.0  0.95513  0.60855  0.54588  1.0000
  H   H75       1.0  0.91631  0.58013  0.34315  1.0000
  O  Te59      1.0  0.07283  0.52055  0.39416  1.0000
  O  Te60      1.0  0.08250  0.57904  0.67102  1.0000
  H   H76       1.0  0.92469  0.63114  0.58451  1.0000
  Mg  Mg30      1.0  0.12507  0.53296  0.55334  1.0000
  C   C141      1.0  0.56840  0.45637  0.82064  1.0000
  C   C142      1.0  0.60384  0.49259  0.85826  1.0000
  C  Sn61      1.0  0.60663  0.53649  0.77184  1.0000
  C  Sn62      1.0  0.57327  0.54417  0.64552  1.0000
  C   C143      1.0  0.53793  0.50772  0.60889  1.0000
  C   C144      1.0  0.53547  0.46393  0.69610  1.0000
  H   H77       1.0  0.56648  0.42250  0.88817  1.0000
  O  Te61      1.0  0.64227  0.57228  0.81096  1.0000
  O  Te62      1.0  0.57524  0.58771  0.55725  1.0000
  H   H78       1.0  0.50801  0.43591  0.66702  1.0000
  Mg  Mg31      1.0  0.63032  0.62548  0.65590  1.0000
  C   C145      1.0  0.89991  0.94709  0.23418  1.0000
  C   C146      1.0  0.89079  0.98282  0.34877  1.0000
  C  Sn63      1.0  0.90346  0.02949  0.34033  1.0000
  C  Sn64      1.0  0.93587  0.04049  0.21469  1.0000
  C   C147      1.0  0.94471  0.00449  0.10058  1.0000
  C   C148      1.0  0.93185  0.95791  0.11018  1.0000
  H   H79       1.0  0.88216  0.91105  0.24155  1.0000
  O  Te63      1.0  0.89396  0.06475  0.45584  1.0000
  O  Te64      1.0  0.95904  0.08684  0.20338  1.0000
  H   H80       1.0  0.93889  0.93026  0.02139  1.0000
  Mg  Mg32      1.0  0.93436  0.12259  0.38938  1.0000
  C   C149      1.0  0.94854  0.09672  0.76429  1.0000
  C   C150      1.0  0.98638  0.11122  0.66288  1.0000
  C  Sn65      1.0  0.03249  0.08843  0.67084  1.0000
  C  Sn66      1.0  0.04075  0.05042  0.78248  1.0000
  C   C151      1.0  0.00263  0.03616  0.88333  1.0000
  C   C152      1.0  0.95664  0.05922  0.87440  1.0000
  H   H81       1.0  0.91294  0.11455  0.75734  1.0000
  O  Te65      1.0  0.06990  0.10338  0.56868  1.0000
  O  Te66      1.0  0.08647  0.02701  0.79291  1.0000
  H   H82       1.0  0.92734  0.04796  0.95286  1.0000
  Mg  Mg33      1.0  0.12586  0.06035  0.62823  1.0000
  C   C153      1.0  0.54576  0.41781  0.34848  1.0000
  C   C154      1.0  0.50954  0.45284  0.38149  1.0000
  C  Sn67      1.0  0.46601  0.45418  0.29278  1.0000
  C  Sn68      1.0  0.45870  0.41977  0.16883  1.0000
  C   C155      1.0  0.49514  0.38484  0.13681  1.0000
  C   C156      1.0  0.53857  0.38384  0.22629  1.0000
  H   H83       1.0  0.57935  0.41701  0.41775  1.0000
  O  Te67      1.0  0.43021  0.48943  0.32729  1.0000
  O  Te68      1.0  0.41552  0.42028  0.07836  1.0000
  H   H84       1.0  0.56659  0.35669  0.20077  1.0000
  Mg  Mg34      1.0  0.37759  0.47537  0.17071  1.0000
  C   C157      1.0  0.89791  0.44660  0.01369  1.0000
  C   C158      1.0  0.88606  0.48464  0.91072  1.0000
  C  Sn69      1.0  0.91000  0.53075  0.91686  1.0000
  C  Sn70      1.0  0.94651  0.53883  0.02825  1.0000
  C   C159      1.0  0.95993  0.50078  0.13068  1.0000
  C   C160      1.0  0.93572  0.45478  0.12355  1.0000
  H   H85       1.0  0.87920  0.41101  0.00813  1.0000
  O  Te69      1.0  0.89588  0.56810  0.81315  1.0000
  O  Te70      1.0  0.97106  0.58455  0.03689  1.0000
  H   H86       1.0  0.94633  0.42553  0.20323  1.0000
  Mg  Mg35      1.0  0.94035  0.62409  0.87054  1.0000
  C   C161      1.0  0.57969  0.95239  0.44502  1.0000
  C   C162      1.0  0.60515  0.99307  0.38253  1.0000
  C  Sn71      1.0  0.59247  0.03945  0.45482  1.0000
  C  Sn72      1.0  0.56381  0.04509  0.59224  1.0000
  C   C163      1.0  0.53851  0.00415  0.65390  1.0000
  C   C164      1.0  0.55143  0.95791  0.58059  1.0000
  H   H87       1.0  0.58192  0.91660  0.38836  1.0000
  O  Te71      1.0  0.61813  0.07972  0.39080  1.0000
  O  Te72      1.0  0.56057  0.09102  0.66689  1.0000
  H   H88       1.0  0.53174  0.92640  0.62906  1.0000
  Mg  Mg36      1.0  0.60218  0.13480  0.53492  1.0000
  C   C165      1.0  0.04805  0.39474  0.47258  1.0000
  C   C166      1.0  0.01367  0.38695  0.59184  1.0000
  C  Sn73      1.0  0.96874  0.41206  0.59024  1.0000
  C  Sn74      1.0  0.95813  0.44556  0.46676  1.0000
  C   C167      1.0  0.99275  0.45306  0.34793  1.0000
  C   C168      1.0  0.03761  0.42776  0.35071  1.0000
  H   H89       1.0  0.08275  0.37514  0.47467  1.0000
  O  Te73      1.0  0.93482  0.40386  0.71035  1.0000
  O  Te74      1.0  0.91350  0.47112  0.46225  1.0000
  H   H90       1.0  0.06420  0.43377  0.25830  1.0000
  Mg  Mg37      1.0  0.87912  0.44746  0.65260  1.0000
  C   C169      1.0  0.55334  0.06364  0.97869  1.0000
  C   C170      1.0  0.51425  0.04573  0.88628  1.0000
  C  Sn75      1.0  0.46656  0.06402  0.90644  1.0000
  C  Sn76      1.0  0.45613  0.10068  0.02131  1.0000
  C   C171      1.0  0.49549  0.11838  0.11309  1.0000
  C   C172      1.0  0.54307  0.09981  0.09197  1.0000
  H   H91       1.0  0.59015  0.04930  0.96230  1.0000
  O  Te75      1.0  0.42792  0.04570  0.81315  1.0000
  O  Te76      1.0  0.40883  0.11962  0.04387  1.0000
  H   H92       1.0  0.57333  0.11371  0.16347  1.0000
  Mg  Mg38      1.0  0.37001  0.08314  0.88799  1.0000
  C   C173      1.0  0.05683  0.95018  0.24424  1.0000
  C   C174      1.0  0.04371  0.98780  0.13996  1.0000
  C  Sn77      1.0  0.05768  0.03387  0.14633  1.0000
  C  Sn78      1.0  0.09552  0.04232  0.25930  1.0000
  C   C175      1.0  0.10839  0.00443  0.36303  1.0000
  C   C176      1.0  0.09416  0.95848  0.35566  1.0000
  H   H93       1.0  0.03806  0.91461  0.23849  1.0000
  O  Te77      1.0  0.04411  0.07105  0.04130  1.0000
  O  Te78      1.0  0.12013  0.08801  0.26820  1.0000
  H   H94       1.0  0.10434  0.92935  0.43634  1.0000
  Mg  Mg39      1.0  0.08844  0.12706  0.09967  1.0000
  C   C177      1.0  0.41427  0.45374  0.65872  1.0000
  C   C178      1.0  0.44371  0.49333  0.60757  1.0000
  C  Sn79      1.0  0.44598  0.53740  0.69354  1.0000
  C  Sn80      1.0  0.41823  0.54179  0.83330  1.0000
  C   C179      1.0  0.38891  0.50195  0.88354  1.0000
  C   C180      1.0  0.38690  0.45803  0.79658  1.0000
  H   H95       1.0  0.41273  0.41974  0.59149  1.0000
  O  Te79      1.0  0.47557  0.57661  0.64073  1.0000
  O  Te80      1.0  0.41983  0.58541  0.92151  1.0000
  H   H96       1.0  0.36412  0.42737  0.83627  1.0000
  Mg  Mg40      1.0  0.46557  0.62850  0.80141  1.0000
