data_image0
_chemical_formula_structural       N16C16H16C4SnCSn2CSnTe4Mg2SnCSn2CSnTe4Mg2SnCSn2CSnTe4Mg2SnCSn2CSnTe4Mg2SnCSn2CSnTe4Mg2SnCSn2CSnTe4Mg2SnCSn2CSnTe4Mg2SnCSn2CSnTe4Mg2SnCSn2CSnTe4Mg2SnCSn2CSnTe4Mg2SnCSn2CSnTe4Mg2SnCSn2CSnTe4Mg2SnCSn2CSnTe4Mg2SnCSn2CSnTe4Mg2SnCSn2CSnTe4Mg2SnCSn2CSnTe4Mg2SnCSn2CSnTe4Mg2SnCSn2CSnTe4Mg2SnCSn2CSnTe4Mg2SnCSn2CSnTe4Mg2SnCSn2CSnTe4Mg2SnCSn2CSnTe4Mg2SnCSn2CSnTe4Mg2SnCSn2CSnTe4Mg2SnCSn2CSnTe4Mg2SnCSn2CSnTe4Mg2SnCSn2CSnTe4Mg2SnCSn2CSnTe4Mg2SnCSn2CSnTe4Mg2SnCSn2CSnTe4Mg2SnCSn2CSnTe4Mg2SnCSn2CSnTe4Mg2SnCSn2CSnTe4Mg2SnCSn2CSnTe4Mg2SnCSn2CSnTe4Mg2SnCSn2CSnTe4Mg2SnCSn2CSnTe4Mg2SnCSn2CSnTe4Mg2SnCSn2CSnTe4Mg2SnCSn2CSnTe4Mg2
_chemical_formula_sum              "N16 C100 H16 Sn160 Te160 Mg80"
_cell_length_a       27.0456
_cell_length_b       26.9706
_cell_length_c       8.53838
_cell_angle_alpha    90.0437
_cell_angle_beta     90.3297
_cell_angle_gamma    90.5774

_symmetry_space_group_name_H-M    'P1'
_space_group_IT_number       1

loop_
  _space_group_symop_operation_xyz
  'x, y, z'

loop_
  _atom_site_type_symbol
  _atom_site_label
  _atom_site_symmetry_multiplicity
  _atom_site_fract_x
  _atom_site_fract_y
  _atom_site_fract_z
  _atom_site_occupancy
  N   N1        1.0  0.52616  0.64310  0.88326  1.0000
  N   N2        1.0  0.97113  0.85499  0.38882  1.0000
  N   N3        1.0  0.35816  0.02948  0.14030  1.0000
  N   N4        1.0  0.14244  0.47445  0.63774  1.0000
  N   N5        1.0  0.47295  0.86053  0.36391  1.0000
  N   N6        1.0  0.02452  0.63924  0.86491  1.0000
  N   N7        1.0  0.63904  0.47593  0.11435  1.0000
  N   N8        1.0  0.85840  0.02386  0.61477  1.0000
  N   N9        1.0  0.02664  0.14132  0.38923  1.0000
  N   N10       1.0  0.47424  0.35795  0.88876  1.0000
  N   N11       1.0  0.85884  0.52390  0.63297  1.0000
  N   N12       1.0  0.64347  0.97424  0.13516  1.0000
  N   N13       1.0  0.97493  0.35648  0.86412  1.0000
  N   N14       1.0  0.53217  0.14610  0.36099  1.0000
  N   N15       1.0  0.14057  0.97247  0.61742  1.0000
  N   N16       1.0  0.35731  0.52768  0.11480  1.0000
  C   C1        1.0  0.49264  0.64389  0.99140  1.0000
  C   C2        1.0  0.00617  0.85704  0.49319  1.0000
  C   C3        1.0  0.35894  0.99527  0.24684  1.0000
  C   C4        1.0  0.14111  0.50863  0.74480  1.0000
  C   C5        1.0  0.50838  0.86270  0.26219  1.0000
  C   C6        1.0  0.99117  0.63911  0.75504  1.0000
  C   C7        1.0  0.63974  0.50960  0.00594  1.0000
  C   C8        1.0  0.86009  0.98910  0.51003  1.0000
  C   C9        1.0  0.99153  0.13873  0.49205  1.0000
  C   C10       1.0  0.50770  0.35987  0.99816  1.0000
  C   C11       1.0  0.85833  0.48981  0.73992  1.0000
  C   C12       1.0  0.64176  0.00928  0.23879  1.0000
  C   C13       1.0  0.00776  0.35603  0.75390  1.0000
  C   C14       1.0  0.49604  0.13931  0.26246  1.0000
  C   C15       1.0  0.14075  0.00641  0.50984  1.0000
  C   C16       1.0  0.35812  0.49354  0.00754  1.0000
  H   H1        1.0  0.45892  0.66611  0.97991  1.0000
  H   H2        1.0  0.04168  0.83817  0.47758  1.0000
  H   H3        1.0  0.33805  0.96028  0.23412  1.0000
  H   H4        1.0  0.16057  0.54440  0.73305  1.0000
  H   H5        1.0  0.54359  0.84338  0.27969  1.0000
  H   H6        1.0  0.95688  0.66044  0.76401  1.0000
  H   H7        1.0  0.66243  0.54359  0.01573  1.0000
  H   H8        1.0  0.84071  0.95332  0.52394  1.0000
  H   H9        1.0  0.95572  0.15695  0.47539  1.0000
  H   H10       1.0  0.54340  0.34105  0.98847  1.0000
  H   H11       1.0  0.83616  0.45561  0.72767  1.0000
  H   H12       1.0  0.66112  0.04500  0.22348  1.0000
  H   H13       1.0  0.04184  0.33435  0.76302  1.0000
  H   H14       1.0  0.45846  0.15240  0.28541  1.0000
  H   H15       1.0  0.16246  0.04092  0.52209  1.0000
  H   H16       1.0  0.33842  0.45796  0.01985  1.0000
  C   C17       1.0  0.49756  0.50285  0.49921  1.0000
  C   C18       1.0  0.99940  0.99818  0.00094  1.0000
  C   C19       1.0  0.50267  0.00140  0.74805  1.0000
  C   C20       1.0  0.99990  0.49777  0.24830  1.0000
  C  Sn1       1.0  0.56161  0.69749  0.63702  1.0000
  C   C21       1.0  0.52458  0.68016  0.73714  1.0000
  C  Sn2       1.0  0.47646  0.67250  0.68129  1.0000
  C  Sn3       1.0  0.46511  0.68234  0.52201  1.0000
  C   C22       1.0  0.50212  0.69966  0.42198  1.0000
  C  Sn4       1.0  0.55025  0.70733  0.47775  1.0000
  O  Te1       1.0  0.60946  0.70488  0.69539  1.0000
  O  Te2       1.0  0.44007  0.65516  0.78363  1.0000
  O  Te3       1.0  0.41721  0.67494  0.46370  1.0000
  O  Te4       1.0  0.58663  0.72465  0.37549  1.0000
  Mg  Mg1       1.0  0.38038  0.65087  0.64879  1.0000
  Mg  Mg2       1.0  0.64634  0.72893  0.51018  1.0000
  C  Sn5       1.0  0.02991  0.83258  0.12791  1.0000
  C   C23       1.0  0.98720  0.84295  0.21271  1.0000
  C  Sn6       1.0  0.94152  0.82320  0.16569  1.0000
  C  Sn7       1.0  0.93849  0.79242  0.03115  1.0000
  C   C24       1.0  0.98300  0.78232  0.94645  1.0000
  C  Sn8       1.0  0.02869  0.80206  0.99337  1.0000
  O  Te5       1.0  0.07518  0.85272  0.17706  1.0000
  O  Te6       1.0  0.89933  0.83411  0.25233  1.0000
  O  Te7       1.0  0.89499  0.77254  0.98205  1.0000
  O  Te8       1.0  0.07087  0.79117  0.90683  1.0000
  Mg  Mg3       1.0  0.84615  0.79788  0.13866  1.0000
  Mg  Mg4       1.0  0.12225  0.82710  0.02043  1.0000
  C  Sn9       1.0  0.29884  0.96557  0.82873  1.0000
  C   C25       1.0  0.27438  0.00299  0.72546  1.0000
  C  Sn10      1.0  0.28920  0.05208  0.75157  1.0000
  C  Sn11      1.0  0.31908  0.06402  0.88361  1.0000
  C   C26       1.0  0.33349  0.02662  0.98678  1.0000
  C  Sn12      1.0  0.32872  0.97752  0.96077  1.0000
  O  Te9       1.0  0.28360  0.91675  0.80033  1.0000
  O  Te10      1.0  0.27431  0.08884  0.64671  1.0000
  O  Te11      1.0  0.33432  0.11290  0.91195  1.0000
  O  Te12      1.0  0.34179  0.94051  0.06552  1.0000
  Mg  Mg5       1.0  0.30455  0.14990  0.73554  1.0000
  Mg  Mg6       1.0  0.31341  0.87970  0.97677  1.0000
  C  Sn13      1.0  0.20942  0.53497  0.33821  1.0000
  C   C27       1.0  0.21687  0.49807  0.22604  1.0000
  C  Sn14      1.0  0.19323  0.45200  0.23973  1.0000
  C  Sn15      1.0  0.16145  0.44263  0.36816  1.0000
  C   C28       1.0  0.15402  0.47951  0.48021  1.0000
  C  Sn16      1.0  0.17765  0.52559  0.46663  1.0000
  O  Te13      1.0  0.23344  0.58075  0.32217  1.0000
  O  Te14      1.0  0.20126  0.41568  0.12615  1.0000
  O  Te15      1.0  0.13744  0.39680  0.38412  1.0000
  O  Te16      1.0  0.16963  0.56190  0.58010  1.0000
  Mg  Mg7       1.0  0.16016  0.35921  0.19927  1.0000
  Mg  Mg8       1.0  0.21068  0.61838  0.50707  1.0000
  C  Sn17      1.0  0.43489  0.83400  0.64720  1.0000
  C   C29       1.0  0.47291  0.84860  0.54656  1.0000
  C  Sn18      1.0  0.52130  0.83291  0.57319  1.0000
  C  Sn19      1.0  0.53191  0.80195  0.70306  1.0000
  C   C30       1.0  0.49391  0.78736  0.80360  1.0000
  C  Sn20      1.0  0.44550  0.80304  0.77707  1.0000
  O  Te17      1.0  0.38679  0.85012  0.61833  1.0000
  O  Te18      1.0  0.55868  0.84800  0.47098  1.0000
  O  Te19      1.0  0.58006  0.78583  0.73187  1.0000
  O  Te20      1.0  0.40813  0.78796  0.87918  1.0000
  Mg  Mg9       1.0  0.61835  0.81629  0.55943  1.0000
  Mg  Mg10      1.0  0.34845  0.81962  0.79081  1.0000
  C  Sn21      1.0  0.05784  0.70189  0.20246  1.0000
  C   C31       1.0  0.01459  0.71396  0.28213  1.0000
  C  Sn22      1.0  0.96889  0.69522  0.23150  1.0000
  C  Sn23      1.0  0.96635  0.66372  0.09853  1.0000
  C   C32       1.0  0.00958  0.65166  0.01896  1.0000
  C  Sn24      1.0  0.05530  0.67040  0.06949  1.0000
  O  Te21      1.0  0.10313  0.72105  0.25516  1.0000
  O  Te22      1.0  0.92616  0.70782  0.31302  1.0000
  O  Te23      1.0  0.92101  0.64457  0.04587  1.0000
  O  Te24      1.0  0.09983  0.65806  0.98807  1.0000
  Mg  Mg11      1.0  0.87316  0.67241  0.19596  1.0000
  Mg  Mg12      1.0  0.15102  0.69317  0.10507  1.0000
  C  Sn25      1.0  0.70594  0.44219  0.44162  1.0000
  C   C33       1.0  0.71657  0.48532  0.52670  1.0000
  C  Sn26      1.0  0.69503  0.53027  0.48459  1.0000
  C  Sn27      1.0  0.66215  0.53215  0.35478  1.0000
  C   C34       1.0  0.65152  0.48904  0.26980  1.0000
  C  Sn28      1.0  0.67305  0.44407  0.31182  1.0000
  O  Te25      1.0  0.72790  0.39765  0.48583  1.0000
  O  Te26      1.0  0.70624  0.57290  0.57140  1.0000
  O  Te27      1.0  0.64019  0.57674  0.31062  1.0000
  O  Te28      1.0  0.66185  0.40146  0.22510  1.0000
  Mg  Mg13      1.0  0.66703  0.62475  0.46542  1.0000
  Mg  Mg14      1.0  0.70102  0.34959  0.33102  1.0000
  C  Sn29      1.0  0.83333  0.06108  0.89968  1.0000
  C   C35       1.0  0.84711  0.02303  0.79820  1.0000
  C  Sn30      1.0  0.84031  0.97454  0.82274  1.0000
  C  Sn31      1.0  0.80900  0.96386  0.95132  1.0000
  C   C36       1.0  0.78336  0.00164  0.05269  1.0000
  C  Sn32      1.0  0.80020  0.05014  0.02826  1.0000
  O  Te29      1.0  0.85061  0.10928  0.87290  1.0000
  O  Te30      1.0  0.85461  0.93711  0.71973  1.0000
  O  Te31      1.0  0.79173  0.91561  0.97803  1.0000
  O  Te32      1.0  0.78591  0.08755  0.13116  1.0000
  Mg  Mg15      1.0  0.82143  0.87731  0.80522  1.0000
  Mg  Mg16      1.0  0.81904  0.14737  0.04575  1.0000
  C  Sn33      1.0  0.06038  0.17302  0.01456  1.0000
  C   C37       1.0  0.01991  0.18815  0.93311  1.0000
  C  Sn34      1.0  0.97373  0.19524  0.01242  1.0000
  C  Sn35      1.0  0.97160  0.18761  0.17659  1.0000
  C   C38       1.0  0.01387  0.17276  0.25795  1.0000
  C  Sn36      1.0  0.05825  0.16539  0.17872  1.0000
  O  Te33      1.0  0.10615  0.16615  0.93288  1.0000
  O  Te34      1.0  0.93376  0.21035  0.92845  1.0000
  O  Te35      1.0  0.92759  0.19475  0.25823  1.0000
  O  Te36      1.0  0.10002  0.15056  0.26260  1.0000
  Mg  Mg17      1.0  0.88065  0.21503  0.09210  1.0000
  Mg  Mg18      1.0  0.15133  0.14563  0.09910  1.0000
  C  Sn37      1.0  0.53734  0.32973  0.64136  1.0000
  C   C39       1.0  0.49439  0.34586  0.71506  1.0000
  C  Sn38      1.0  0.44790  0.33216  0.65640  1.0000
  C  Sn39      1.0  0.44426  0.30168  0.52131  1.0000
  C   C40       1.0  0.48720  0.28556  0.44769  1.0000
  C  Sn40      1.0  0.53371  0.29925  0.50626  1.0000
  O  Te37      1.0  0.58343  0.34387  0.70204  1.0000
  O  Te38      1.0  0.40548  0.34876  0.73207  1.0000
  O  Te39      1.0  0.39812  0.28754  0.46065  1.0000
  O  Te40      1.0  0.57610  0.28266  0.43069  1.0000
  Mg  Mg19      1.0  0.35110  0.31953  0.60494  1.0000
  Mg  Mg20      1.0  0.63050  0.31185  0.55775  1.0000
  C  Sn41      1.0  0.81984  0.56023  0.26567  1.0000
  C   C41       1.0  0.80662  0.51754  0.18190  1.0000
  C  Sn42      1.0  0.80423  0.47158  0.25697  1.0000
  C  Sn43      1.0  0.81525  0.46823  0.41920  1.0000
  C   C42       1.0  0.82846  0.51091  0.50289  1.0000
  C  Sn44      1.0  0.83087  0.55688  0.42790  1.0000
  O  Te41      1.0  0.82200  0.60578  0.18822  1.0000
  O  Te42      1.0  0.79094  0.42942  0.17074  1.0000
  O  Te43      1.0  0.81309  0.42263  0.49662  1.0000
  O  Te44      1.0  0.84414  0.59903  0.51404  1.0000
  Mg  Mg21      1.0  0.79315  0.37577  0.32872  1.0000
  Mg  Mg22      1.0  0.84192  0.65269  0.35621  1.0000
  C  Sn45      1.0  0.68058  0.93932  0.76584  1.0000
  C   C43       1.0  0.69258  0.98229  0.68234  1.0000
  C  Sn46      1.0  0.68456  0.02821  0.75795  1.0000
  C  Sn47      1.0  0.67441  0.03126  0.92044  1.0000
  C   C44       1.0  0.67065  0.98805  0.00386  1.0000
  C  Sn48      1.0  0.67043  0.94236  0.92833  1.0000
  O  Te45      1.0  0.67877  0.89379  0.68786  1.0000
  O  Te46      1.0  0.69662  0.07066  0.67199  1.0000
  O  Te47      1.0  0.67622  0.07683  0.99840  1.0000
  O  Te48      1.0  0.65656  0.89968  0.01421  1.0000
  Mg  Mg23      1.0  0.69439  0.12414  0.83069  1.0000
  Mg  Mg24      1.0  0.66063  0.84644  0.85565  1.0000
  C  Sn49      1.0  0.94225  0.33594  0.15718  1.0000
  C   C45       1.0  0.97885  0.34479  0.04545  1.0000
  C  Sn50      1.0  0.02527  0.32302  0.06062  1.0000
  C  Sn51      1.0  0.03533  0.29172  0.19011  1.0000
  C   C46       1.0  0.99875  0.28288  0.30173  1.0000
  C  Sn52      1.0  0.95231  0.30464  0.28667  1.0000
  O  Te49      1.0  0.89610  0.35810  0.13965  1.0000
  O  Te50      1.0  0.06309  0.33270  0.94745  1.0000
  O  Te51      1.0  0.08152  0.26957  0.20756  1.0000
  O  Te52      1.0  0.91632  0.29524  0.39973  1.0000
  Mg  Mg25      1.0  0.11845  0.29367  0.02272  1.0000
  Mg  Mg26      1.0  0.85912  0.33396  0.32454  1.0000
  C  Sn53      1.0  0.46857  0.18104  0.70365  1.0000
  C   C47       1.0  0.50610  0.19121  0.81253  1.0000
  C  Sn54      1.0  0.55545  0.19334  0.76539  1.0000
  C  Sn55      1.0  0.56754  0.18517  0.60609  1.0000
  C   C48       1.0  0.53002  0.17502  0.49731  1.0000
  C  Sn56      1.0  0.48065  0.17287  0.54435  1.0000
  O  Te53      1.0  0.41948  0.17909  0.75339  1.0000
  O  Te54      1.0  0.59233  0.20355  0.87639  1.0000
  O  Te55      1.0  0.61667  0.18713  0.55641  1.0000
  O  Te56      1.0  0.44378  0.16268  0.43345  1.0000
  Mg  Mg27      1.0  0.65375  0.20233  0.75143  1.0000
  Mg  Mg28      1.0  0.38236  0.16392  0.55825  1.0000
  C  Sn57      1.0  0.17382  0.03431  0.96523  1.0000
  C   C49       1.0  0.19897  0.99658  0.06434  1.0000
  C  Sn58      1.0  0.20691  0.94890  0.00631  1.0000
  C  Sn59      1.0  0.19959  0.93871  0.84585  1.0000
  C   C50       1.0  0.18268  0.97617  0.74684  1.0000
  C  Sn60      1.0  0.16468  0.02387  0.80478  1.0000
  O  Te57      1.0  0.16432  0.08146  0.02577  1.0000
  O  Te58      1.0  0.22383  0.91205  0.10767  1.0000
  O  Te59      1.0  0.20728  0.89126  0.78537  1.0000
  O  Te60      1.0  0.14778  0.06071  0.70351  1.0000
  Mg  Mg29      1.0  0.23057  0.85352  0.96983  1.0000
  Mg  Mg30      1.0  0.14287  0.11951  0.84119  1.0000
  C  Sn61      1.0  0.31774  0.46432  0.45399  1.0000
  C   C51       1.0  0.30831  0.50197  0.56198  1.0000
  C  Sn62      1.0  0.30856  0.55156  0.51484  1.0000
  C  Sn63      1.0  0.31840  0.56377  0.35643  1.0000
  C   C52       1.0  0.32781  0.52613  0.24854  1.0000
  C  Sn64      1.0  0.32759  0.47653  0.29559  1.0000
  O  Te61      1.0  0.31731  0.41500  0.50371  1.0000
  O  Te62      1.0  0.29904  0.58856  0.62494  1.0000
  O  Te63      1.0  0.31883  0.61313  0.30678  1.0000
  O  Te64      1.0  0.33708  0.43954  0.18558  1.0000
  Mg  Mg31      1.0  0.30371  0.65030  0.50038  1.0000
  Mg  Mg32      1.0  0.33240  0.37779  0.30998  1.0000
  C  Sn65      1.0  0.54866  0.74982  0.15857  1.0000
  C   C53       1.0  0.51257  0.74391  0.27373  1.0000
  C  Sn66      1.0  0.46266  0.75050  0.23715  1.0000
  C  Sn67      1.0  0.44852  0.76323  0.08222  1.0000
  C   C54       1.0  0.48642  0.76939  0.96717  1.0000
  C  Sn68      1.0  0.53452  0.76256  0.00364  1.0000
  O  Te65      1.0  0.59834  0.74306  0.19777  1.0000
  O  Te66      1.0  0.42725  0.74440  0.35427  1.0000
  O  Te67      1.0  0.39880  0.77000  0.04310  1.0000
  O  Te68      1.0  0.57173  0.76890  0.88662  1.0000
  Mg  Mg33      1.0  0.36428  0.75757  0.24326  1.0000
  Mg  Mg34      1.0  0.63472  0.75571  0.99748  1.0000
  C  Sn69      1.0  0.04005  0.72132  0.62617  1.0000
  C   C55       1.0  0.00417  0.71596  0.50878  1.0000
  C  Sn70      1.0  0.96035  0.74284  0.51546  1.0000
  C  Sn71      1.0  0.95224  0.77579  0.64205  1.0000
  C   C56       1.0  0.98811  0.78115  0.75933  1.0000
  C  Sn72      1.0  0.03194  0.75428  0.75276  1.0000
  O  Te69      1.0  0.08358  0.69408  0.61711  1.0000
  O  Te70      1.0  0.92501  0.73684  0.39676  1.0000
  O  Te71      1.0  0.90866  0.80304  0.65103  1.0000
  O  Te72      1.0  0.06726  0.76027  0.87136  1.0000
  Mg  Mg35      1.0  0.87166  0.78214  0.46109  1.0000
  Mg  Mg36      1.0  0.12063  0.71501  0.80710  1.0000
  C  Sn73      1.0  0.26060  0.95144  0.42899  1.0000
  C   C57       1.0  0.28198  0.99344  0.49868  1.0000
  C  Sn74      1.0  0.26370  0.04048  0.43596  1.0000
  C  Sn75      1.0  0.23346  0.04566  0.30082  1.0000
  C   C58       1.0  0.21210  0.00368  0.23122  1.0000
  C  Sn76      1.0  0.23036  0.95662  0.29385  1.0000
  O  Te73      1.0  0.26933  0.90478  0.49369  1.0000
  O  Te74      1.0  0.28548  0.08192  0.50766  1.0000
  O  Te75      1.0  0.22476  0.09238  0.23614  1.0000
  O  Te76      1.0  0.20860  0.91520  0.22224  1.0000
  Mg  Mg37      1.0  0.26257  0.13762  0.37591  1.0000
  Mg  Mg38      1.0  0.23146  0.85949  0.35393  1.0000
  C  Sn77      1.0  0.23410  0.55032  0.91733  1.0000
  C   C59       1.0  0.21784  0.50778  0.99579  1.0000
  C  Sn78      1.0  0.23248  0.46087  0.94569  1.0000
  C  Sn79      1.0  0.26405  0.45639  0.81449  1.0000
  C   C60       1.0  0.28030  0.49892  0.73613  1.0000
  C  Sn80      1.0  0.26567  0.54584  0.78614  1.0000
  O  Te77      1.0  0.21900  0.59683  0.96946  1.0000
  O  Te78      1.0  0.21391  0.41862  0.02597  1.0000
  O  Te79      1.0  0.27915  0.40983  0.76239  1.0000
  O  Te80      1.0  0.28241  0.58781  0.70595  1.0000
  Mg  Mg39      1.0  0.24652  0.36365  0.91031  1.0000
  Mg  Mg40      1.0  0.25167  0.64306  0.82155  1.0000
  C  Sn81      1.0  0.71700  0.46021  0.87678  1.0000
  C   C61       1.0  0.71653  0.49540  0.75674  1.0000
  C  Sn82      1.0  0.74874  0.53619  0.76168  1.0000
  C  Sn83      1.0  0.78214  0.54192  0.88922  1.0000
  C   C62       1.0  0.78079  0.50648  0.00916  1.0000
  C  Sn84      1.0  0.74859  0.46568  0.00433  1.0000
  O  Te81      1.0  0.68447  0.41972  0.86942  1.0000
  O  Te82      1.0  0.74757  0.57089  0.64032  1.0000
  O  Te83      1.0  0.81468  0.58245  0.89650  1.0000
  O  Te84      1.0  0.74975  0.43099  0.12557  1.0000
  Mg  Mg41      1.0  0.79912  0.61974  0.70312  1.0000
  Mg  Mg42      1.0  0.69824  0.38212  0.06286  1.0000
  C  Sn85      1.0  0.73507  0.95736  0.28979  1.0000
  C   C63       1.0  0.75800  0.99847  0.22067  1.0000
  C  Sn86      1.0  0.76151  0.03959  0.31134  1.0000
  C  Sn87      1.0  0.75198  0.03963  0.47451  1.0000
  C   C64       1.0  0.73912  0.99855  0.54354  1.0000
  C  Sn88      1.0  0.72554  0.95740  0.45296  1.0000
  O  Te85      1.0  0.72184  0.91665  0.19689  1.0000
  O  Te86      1.0  0.78438  0.08026  0.23959  1.0000
  O  Te87      1.0  0.76524  0.08039  0.56738  1.0000
  O  Te88      1.0  0.70270  0.91675  0.52462  1.0000
  Mg  Mg43      1.0  0.79550  0.12693  0.41567  1.0000
  Mg  Mg44      1.0  0.69158  0.87005  0.34868  1.0000
  C  Sn89      1.0  0.95503  0.23223  0.66532  1.0000
  C   C65       1.0  0.99716  0.21532  0.74339  1.0000
  C  Sn90      1.0  0.04426  0.22886  0.69125  1.0000
  C  Sn91      1.0  0.04935  0.25997  0.55837  1.0000
  C   C66       1.0  0.00724  0.27688  0.48040  1.0000
  C  Sn92      1.0  0.96012  0.26335  0.53244  1.0000
  O  Te89      1.0  0.90831  0.21823  0.71950  1.0000
  O  Te90      1.0  0.08583  0.21147  0.77119  1.0000
  O  Te91      1.0  0.09612  0.27397  0.50422  1.0000
  O  Te92      1.0  0.91857  0.28072  0.45260  1.0000
  Mg  Mg45      1.0  0.14156  0.24081  0.65246  1.0000
  Mg  Mg46      1.0  0.86283  0.25143  0.57127  1.0000
  C  Sn93      1.0  0.55337  0.23021  0.12317  1.0000
  C   C67       1.0  0.51635  0.21607  0.01689  1.0000
  C  Sn94      1.0  0.46806  0.23298  0.03498  1.0000
  C  Sn95      1.0  0.45655  0.26471  0.16190  1.0000
  C   C68       1.0  0.49356  0.27885  0.26807  1.0000
  C  Sn96      1.0  0.54186  0.26195  0.25009  1.0000
  O  Te93      1.0  0.60139  0.21286  0.10280  1.0000
  O  Te94      1.0  0.43349  0.21858  0.92726  1.0000
  O  Te95      1.0  0.40848  0.28206  0.18220  1.0000
  O  Te96      1.0  0.57824  0.27659  0.35771  1.0000
  Mg  Mg47      1.0  0.37172  0.25176  0.00469  1.0000
  Mg  Mg48      1.0  0.63820  0.24320  0.28035  1.0000
  C  Sn97      1.0  0.44806  0.57420  0.30799  1.0000
  C   C69       1.0  0.48662  0.54324  0.35401  1.0000
  C  Sn98      1.0  0.53436  0.55105  0.29689  1.0000
  C  Sn99      1.0  0.54376  0.59065  0.19164  1.0000
  C   C70       1.0  0.50522  0.62159  0.14570  1.0000
  C  Sn100     1.0  0.45746  0.61380  0.20274  1.0000
  O  Te97      1.0  0.40062  0.56571  0.36657  1.0000
  O  Te98      1.0  0.57231  0.51959  0.34455  1.0000
  O  Te99      1.0  0.59125  0.59912  0.13307  1.0000
  O  Te100     1.0  0.41952  0.64524  0.15516  1.0000
  Mg  Mg49      1.0  0.63070  0.54623  0.23257  1.0000
  Mg  Mg50      1.0  0.36113  0.61866  0.26712  1.0000
  C  Sn101     1.0  0.95892  0.93060  0.66568  1.0000
  C   C71       1.0  0.99794  0.90041  0.61968  1.0000
  C  Sn102     1.0  0.03807  0.89266  0.72013  1.0000
  C  Sn103     1.0  0.03921  0.91555  0.86974  1.0000
  C   C72       1.0  0.00020  0.94572  0.91568  1.0000
  C  Sn104     1.0  0.96006  0.95349  0.81529  1.0000
  O  Te101     1.0  0.91918  0.93783  0.56336  1.0000
  O  Te102     1.0  0.07666  0.86234  0.67151  1.0000
  O  Te103     1.0  0.07900  0.90830  0.97206  1.0000
  O  Te104     1.0  0.92148  0.98379  0.86385  1.0000
  Mg  Mg51      1.0  0.12269  0.86380  0.85263  1.0000
  Mg  Mg52      1.0  0.87542  0.98233  0.68287  1.0000
  C  Sn105     1.0  0.43365  0.95058  0.54910  1.0000
  C   C73       1.0  0.46221  0.99069  0.60253  1.0000
  C  Sn106     1.0  0.44063  0.03899  0.55727  1.0000
  C  Sn107     1.0  0.39967  0.04739  0.45658  1.0000
  C   C74       1.0  0.37114  0.00730  0.40323  1.0000
  C  Sn108     1.0  0.39270  0.95898  0.44841  1.0000
  O  Te105     1.0  0.44586  0.90261  0.59586  1.0000
  O  Te106     1.0  0.46973  0.07849  0.61215  1.0000
  O  Te107     1.0  0.38748  0.09541  0.40984  1.0000
  O  Te108     1.0  0.36361  0.91950  0.39360  1.0000
  Mg  Mg53      1.0  0.43826  0.13706  0.51567  1.0000
  Mg  Mg54      1.0  0.39503  0.86091  0.49007  1.0000
  C  Sn109     1.0  0.07138  0.55007  0.06223  1.0000
  C   C75       1.0  0.04053  0.51057  0.10531  1.0000
  C  Sn110     1.0  0.04863  0.46301  0.04649  1.0000
  C  Sn111     1.0  0.09025  0.45502  0.94251  1.0000
  C   C76       1.0  0.12108  0.49451  0.89950  1.0000
  C  Sn112     1.0  0.11299  0.54208  0.95825  1.0000
  O  Te109     1.0  0.06258  0.59730  0.12248  1.0000
  O  Te110     1.0  0.01728  0.42410  0.09121  1.0000
  O  Te111     1.0  0.09902  0.40774  0.88227  1.0000
  O  Te112     1.0  0.14432  0.58097  0.91360  1.0000
  Mg  Mg55      1.0  0.04617  0.36670  0.97786  1.0000
  Mg  Mg56      1.0  0.11549  0.63838  0.02693  1.0000
  C  Sn113     1.0  0.45964  0.95440  0.01248  1.0000
  C   C77       1.0  0.49904  0.96507  0.90544  1.0000
  C  Sn114     1.0  0.54021  0.93438  0.89558  1.0000
  C  Sn115     1.0  0.54387  0.89239  0.99471  1.0000
  C   C78       1.0  0.50448  0.88173  0.10166  1.0000
  C  Sn116     1.0  0.46330  0.91241  0.11162  1.0000
  O  Te113     1.0  0.41882  0.98559  0.02032  1.0000
  O  Te114     1.0  0.57732  0.94555  0.78767  1.0000
  O  Te115     1.0  0.58474  0.86119  0.98679  1.0000
  O  Te116     1.0  0.42620  0.90125  0.21942  1.0000
  Mg  Mg57      1.0  0.62567  0.89188  0.82091  1.0000
  Mg  Mg58      1.0  0.37783  0.95487  0.18622  1.0000
  C  Sn117     1.0  0.04844  0.58407  0.53742  1.0000
  C   C79       1.0  0.00910  0.61406  0.58199  1.0000
  C  Sn118     1.0  0.96165  0.60530  0.52201  1.0000
  C  Sn119     1.0  0.95334  0.56571  0.41532  1.0000
  C   C80       1.0  0.99266  0.53574  0.37083  1.0000
  C  Sn120     1.0  0.04013  0.54448  0.43073  1.0000
  O  Te117     1.0  0.09557  0.59350  0.59886  1.0000
  O  Te118     1.0  0.92290  0.63579  0.56826  1.0000
  O  Te119     1.0  0.90616  0.55629  0.35389  1.0000
  O  Te120     1.0  0.07886  0.51400  0.38455  1.0000
  Mg  Mg59      1.0  0.86533  0.60808  0.45239  1.0000
  Mg  Mg60      1.0  0.13644  0.54167  0.50041  1.0000
  C  Sn121     1.0  0.54147  0.46484  0.77341  1.0000
  C   C81       1.0  0.53398  0.50066  0.65772  1.0000
  C  Sn122     1.0  0.56858  0.53879  0.63586  1.0000
  C  Sn123     1.0  0.61158  0.54117  0.73156  1.0000
  C   C82       1.0  0.61905  0.50537  0.84715  1.0000
  C  Sn124     1.0  0.58447  0.46722  0.86911  1.0000
  O  Te121     1.0  0.50640  0.42704  0.79319  1.0000
  O  Te122     1.0  0.56027  0.57418  0.51947  1.0000
  O  Te123     1.0  0.64666  0.57901  0.71169  1.0000
  O  Te124     1.0  0.59276  0.43184  0.98540  1.0000
  Mg  Mg61      1.0  0.61883  0.61852  0.53756  1.0000
  Mg  Mg62      1.0  0.53425  0.38748  0.96736  1.0000
  C  Sn125     1.0  0.91201  0.04679  0.28171  1.0000
  C   C83       1.0  0.88365  0.00644  0.33320  1.0000
  C  Sn126     1.0  0.90404  0.95854  0.28137  1.0000
  C  Sn127     1.0  0.94356  0.95078  0.17595  1.0000
  C   C84       1.0  0.97189  0.99111  0.12453  1.0000
  C  Sn128     1.0  0.95153  0.03903  0.17628  1.0000
  O  Te125     1.0  0.90102  0.09436  0.33506  1.0000
  O  Te126     1.0  0.87516  0.91879  0.33444  1.0000
  O  Te127     1.0  0.95453  0.90316  0.12261  1.0000
  O  Te128     1.0  0.98038  0.07876  0.12329  1.0000
  Mg  Mg63      1.0  0.90463  0.86095  0.22839  1.0000
  Mg  Mg64      1.0  0.95096  0.13661  0.22933  1.0000
  C  Sn129     1.0  0.95753  0.10827  0.79067  1.0000
  C   C85       1.0  0.99430  0.11840  0.68058  1.0000
  C  Sn130     1.0  0.03424  0.08645  0.66351  1.0000
  C  Sn131     1.0  0.03748  0.04344  0.75837  1.0000
  C   C86       1.0  0.00072  0.03332  0.86835  1.0000
  C  Sn132     1.0  0.96077  0.06527  0.88553  1.0000
  O  Te129     1.0  0.91793  0.14073  0.80573  1.0000
  O  Te130     1.0  0.07056  0.09737  0.55269  1.0000
  O  Te131     1.0  0.07712  0.01097  0.74322  1.0000
  O  Te132     1.0  0.92446  0.05436  0.99625  1.0000
  Mg  Mg65      1.0  0.11732  0.04180  0.57583  1.0000
  Mg  Mg66      1.0  0.87767  0.10988  0.97316  1.0000
  C  Sn133     1.0  0.44828  0.43502  0.28262  1.0000
  C   C87       1.0  0.48481  0.44608  0.39406  1.0000
  C  Sn134     1.0  0.53349  0.43099  0.37115  1.0000
  C  Sn135     1.0  0.54594  0.40432  0.23393  1.0000
  C   C88       1.0  0.50943  0.39328  0.12257  1.0000
  C  Sn136     1.0  0.46073  0.40835  0.14541  1.0000
  O  Te133     1.0  0.39985  0.45048  0.30795  1.0000
  O  Te134     1.0  0.56936  0.44247  0.48424  1.0000
  O  Te135     1.0  0.59441  0.38886  0.20867  1.0000
  O  Te136     1.0  0.42487  0.39690  0.03239  1.0000
  Mg  Mg67      1.0  0.63019  0.41339  0.39665  1.0000
  Mg  Mg68      1.0  0.36404  0.42597  0.11982  1.0000
  C  Sn137     1.0  0.92927  0.44620  0.05483  1.0000
  C   C89       1.0  0.95953  0.48583  0.10210  1.0000
  C  Sn138     1.0  0.95066  0.53368  0.04680  1.0000
  C  Sn139     1.0  0.91253  0.54235  0.94215  1.0000
  C   C90       1.0  0.88230  0.50273  0.89497  1.0000
  C  Sn140     1.0  0.89114  0.45487  0.95019  1.0000
  O  Te137     1.0  0.93882  0.39868  0.11160  1.0000
  O  Te138     1.0  0.98142  0.57271  0.09567  1.0000
  O  Te139     1.0  0.90300  0.58992  0.88540  1.0000
  O  Te140     1.0  0.86040  0.41585  0.90139  1.0000
  Mg  Mg69      1.0  0.95525  0.63103  0.98603  1.0000
  Mg  Mg70      1.0  0.88652  0.35752  0.01101  1.0000
  C  Sn141     1.0  0.56849  0.05297  0.54375  1.0000
  C   C91       1.0  0.54130  0.01231  0.59885  1.0000
  C  Sn142     1.0  0.56339  0.96425  0.55256  1.0000
  C  Sn143     1.0  0.60346  0.95667  0.44911  1.0000
  C   C92       1.0  0.63062  0.99731  0.39409  1.0000
  C  Sn144     1.0  0.60856  0.04539  0.44030  1.0000
  O  Te141     1.0  0.55580  0.10068  0.59158  1.0000
  O  Te142     1.0  0.53565  0.92419  0.60916  1.0000
  O  Te143     1.0  0.61613  0.90891  0.40130  1.0000
  O  Te144     1.0  0.63627  0.08543  0.38379  1.0000
  Mg  Mg71      1.0  0.56730  0.86626  0.51027  1.0000
  Mg  Mg72      1.0  0.60467  0.14337  0.48265  1.0000
  C  Sn145     1.0  0.03868  0.40478  0.38029  1.0000
  C   C93       1.0  0.00105  0.43772  0.34087  1.0000
  C  Sn146     1.0  0.96371  0.44826  0.44788  1.0000
  C  Sn147     1.0  0.96400  0.42542  0.59745  1.0000
  C   C94       1.0  0.00162  0.39251  0.63682  1.0000
  C  Sn148     1.0  0.03897  0.38194  0.52987  1.0000
  O  Te145     1.0  0.07563  0.39479  0.27148  1.0000
  O  Te146     1.0  0.92647  0.48130  0.40578  1.0000
  O  Te147     1.0  0.92700  0.43544  0.70627  1.0000
  O  Te148     1.0  0.07620  0.34893  0.57191  1.0000
  Mg  Mg73      1.0  0.88425  0.48303  0.59432  1.0000
  Mg  Mg74      1.0  0.11845  0.34719  0.38351  1.0000
  C  Sn149     1.0  0.54441  0.05102  0.00668  1.0000
  C   C95       1.0  0.50755  0.03782  0.90555  1.0000
  C  Sn150     1.0  0.46442  0.06584  0.89965  1.0000
  C  Sn151     1.0  0.45986  0.10821  0.99678  1.0000
  C   C96       1.0  0.49671  0.12140  0.09781  1.0000
  C  Sn152     1.0  0.53985  0.09339  0.10382  1.0000
  O  Te149     1.0  0.58719  0.02247  0.01064  1.0000
  O  Te150     1.0  0.42625  0.05164  0.79763  1.0000
  O  Te151     1.0  0.41703  0.13676  0.99274  1.0000
  O  Te152     1.0  0.57801  0.10758  0.20573  1.0000
  Mg  Mg75      1.0  0.37528  0.10245  0.83447  1.0000
  Mg  Mg76      1.0  0.62901  0.05681  0.16894  1.0000
  C  Sn153     1.0  0.08960  0.05049  0.26653  1.0000
  C   C97       1.0  0.10108  0.01268  0.37210  1.0000
  C  Sn154     1.0  0.09676  0.96376  0.34082  1.0000
  C  Sn155     1.0  0.07040  0.95238  0.20105  1.0000
  C   C98       1.0  0.05895  0.99017  0.09557  1.0000
  C  Sn156     1.0  0.06325  0.03911  0.12677  1.0000
  O  Te153     1.0  0.10434  0.09914  0.30019  1.0000
  O  Te154     1.0  0.10864  0.92660  0.44815  1.0000
  O  Te155     1.0  0.05567  0.90368  0.16746  1.0000
  O  Te156     1.0  0.05139  0.07626  0.01952  1.0000
  Mg  Mg77      1.0  0.08053  0.86598  0.34993  1.0000
  Mg  Mg78      1.0  0.07950  0.13688  0.11757  1.0000
  C  Sn157     1.0  0.41322  0.55172  0.78769  1.0000
  C   C99       1.0  0.38207  0.51254  0.83160  1.0000
  C  Sn158     1.0  0.38901  0.46507  0.77058  1.0000
  C  Sn159     1.0  0.42793  0.45656  0.66352  1.0000
  C   C100      1.0  0.45906  0.49571  0.61969  1.0000
  C  Sn160     1.0  0.45213  0.54321  0.68063  1.0000
  O  Te157     1.0  0.40560  0.59888  0.85017  1.0000
  O  Te158     1.0  0.35738  0.42649  0.81619  1.0000
  O  Te159     1.0  0.43553  0.40935  0.60105  1.0000
  O  Te160     1.0  0.48374  0.58176  0.63510  1.0000
  Mg  Mg79      1.0  0.38273  0.36880  0.69897  1.0000
  Mg  Mg80      1.0  0.45845  0.63946  0.75230  1.0000
