data_image0
_chemical_formula_structural       N16C16H16C6Sn2C2HTe2HMgC2Sn2C2HTe2HMgC2Sn2C2HTe2HMgC2Sn2C2HTe2HMgC2Sn2C2HTe2HMgC2Sn2C2HTe2HMgC2Sn2C2HTe2HMgC2Sn2C2HTe2HMgC2Sn2C2HTe2HMgC2Sn2C2HTe2HMgC2Sn2C2HTe2HMgC2Sn2C2HTe2HMgC2Sn2C2HTe2HMgC2Sn2C2HTe2HMgC2Sn2C2HTe2HMgC2Sn2C2HTe2HMgC2Sn2C2HTe2HMgC2Sn2C2HTe2HMgC2Sn2C2HTe2HMgC2Sn2C2HTe2HMgC2Sn2C2HTe2HMgC2Sn2C2HTe2HMgC2Sn2C2HTe2HMgC2Sn2C2HTe2HMgC2Sn2C2HTe2HMgC2Sn2C2HTe2HMgC2Sn2C2HTe2HMgC2Sn2C2HTe2HMgC2Sn2C2HTe2HMgC2Sn2C2HTe2HMgC2Sn2C2HTe2HMgC2Sn2C2HTe2HMg
_chemical_formula_sum              "N16 C148 H80 Sn64 Te64 Mg32"
_cell_length_a       23.7554
_cell_length_b       23.7556
_cell_length_c       8.64227
_cell_angle_alpha    89.9576
_cell_angle_beta     90.0525
_cell_angle_gamma    90.7067

_symmetry_space_group_name_H-M    'P1'
_space_group_IT_number       1

loop_
  _space_group_symop_operation_xyz
  'x, y, z'

loop_
  _atom_site_type_symbol
  _atom_site_label
  _atom_site_symmetry_multiplicity
  _atom_site_fract_x
  _atom_site_fract_y
  _atom_site_fract_z
  _atom_site_occupancy
  N   N1        1.0  0.84032  0.97088  0.88745  1.0000
  N   N2        1.0  0.66248  0.53164  0.39327  1.0000
  N   N3        1.0  0.03199  0.34027  0.14319  1.0000
  N   N4        1.0  0.47086  0.15368  0.63142  1.0000
  N   N5        1.0  0.16548  0.52862  0.35595  1.0000
  N   N6        1.0  0.34068  0.96805  0.86069  1.0000
  N   N7        1.0  0.97652  0.16152  0.10914  1.0000
  N   N8        1.0  0.52999  0.33998  0.60931  1.0000
  N   N9        1.0  0.33944  0.46777  0.39381  1.0000
  N   N10       1.0  0.15874  0.02987  0.88475  1.0000
  N   N11       1.0  0.53073  0.83950  0.64072  1.0000
  N   N12       1.0  0.97266  0.66801  0.15190  1.0000
  N   N13       1.0  0.65609  0.02827  0.86249  1.0000
  N   N14       1.0  0.83728  0.47133  0.35764  1.0000
  N   N15       1.0  0.46816  0.65701  0.61302  1.0000
  N   N16       1.0  0.02077  0.84331  0.10793  1.0000
  C   C1        1.0  0.83521  0.00594  0.00183  1.0000
  C   C2        1.0  0.66350  0.49521  0.50482  1.0000
  C   C3        1.0  0.99222  0.34314  0.24547  1.0000
  C   C4        1.0  0.50273  0.16085  0.75209  1.0000
  C   C5        1.0  0.16126  0.48975  0.25101  1.0000
  C   C6        1.0  0.33575  0.00137  0.74248  1.0000
  C   C7        1.0  0.01213  0.16379  0.99557  1.0000
  C   C8        1.0  0.49421  0.33573  0.49614  1.0000
  C   C9        1.0  0.33808  0.50417  0.50537  1.0000
  C   C10       1.0  0.16168  0.99524  0.00062  1.0000
  C   C11       1.0  0.49710  0.83342  0.75819  1.0000
  C   C12       1.0  0.01278  0.66534  0.25342  1.0000
  C   C13       1.0  0.66371  0.99709  0.74110  1.0000
  C   C14       1.0  0.84272  0.51086  0.25484  1.0000
  C   C15       1.0  0.50432  0.66030  0.50084  1.0000
  C   C16       1.0  0.98401  0.84234  0.99689  1.0000
  H   H1        1.0  0.80554  0.04109  0.99857  1.0000
  H   H2        1.0  0.69017  0.45774  0.49965  1.0000
  H   H3        1.0  0.95134  0.32174  0.22947  1.0000
  H   H4        1.0  0.53637  0.19294  0.75571  1.0000
  H   H5        1.0  0.18046  0.44818  0.26410  1.0000
  H   H6        1.0  0.30615  0.03656  0.74115  1.0000
  H   H7        1.0  0.04994  0.19083  0.99824  1.0000
  H   H8        1.0  0.45748  0.30706  0.49982  1.0000
  H   H9        1.0  0.31086  0.54126  0.50098  1.0000
  H   H10       1.0  0.18941  0.95853  0.99906  1.0000
  H   H11       1.0  0.46231  0.80244  0.75867  1.0000
  H   H12       1.0  0.05388  0.68632  0.23692  1.0000
  H   H13       1.0  0.69584  0.96426  0.73647  1.0000
  H   H14       1.0  0.82500  0.55295  0.27090  1.0000
  H   H15       1.0  0.54175  0.68793  0.50652  1.0000
  H   H16       1.0  0.94512  0.81700  0.00384  1.0000
  C   C17       1.0  0.99919  0.00281  0.49609  1.0000
  C   C18       1.0  0.50111  0.49898  0.00123  1.0000
  C   C19       1.0  0.00144  0.50270  0.74943  1.0000
  C   C20       1.0  0.49910  0.99779  0.24921  1.0000
  C   C21       1.0  0.78897  0.93193  0.52881  1.0000
  C   C22       1.0  0.76637  0.97999  0.46057  1.0000
  C  Sn1       1.0  0.75820  0.03201  0.53530  1.0000
  C  Sn2       1.0  0.78553  0.03586  0.68103  1.0000
  C   C23       1.0  0.82036  0.98754  0.74829  1.0000
  C   C24       1.0  0.81595  0.93569  0.67252  1.0000
  H   H17       1.0  0.78558  0.89182  0.47016  1.0000
  O  Te1       1.0  0.73537  0.07960  0.46551  1.0000
  O  Te2       1.0  0.79030  0.08732  0.75822  1.0000
  H   H18       1.0  0.83348  0.89850  0.72534  1.0000
  Mg  Mg1       1.0  0.75247  0.14026  0.61614  1.0000
  C   C25       1.0  0.71815  0.57301  0.13515  1.0000
  C   C26       1.0  0.69068  0.53336  0.22879  1.0000
  C  Sn3       1.0  0.69135  0.47629  0.19002  1.0000
  C  Sn4       1.0  0.72011  0.45871  0.05494  1.0000
  C   C27       1.0  0.74783  0.49844  0.96208  1.0000
  C   C28       1.0  0.74655  0.55571  0.00193  1.0000
  H   H19       1.0  0.71744  0.61712  0.16602  1.0000
  O  Te3       1.0  0.66366  0.43723  0.28483  1.0000
  O  Te4       1.0  0.72147  0.40193  0.01351  1.0000
  H   H20       1.0  0.76819  0.58613  0.92946  1.0000
  Mg  Mg2       1.0  0.67745  0.36463  0.17975  1.0000
  C   C29       1.0  0.95523  0.28912  0.82309  1.0000
  C   C30       1.0  0.99645  0.27513  0.71495  1.0000
  C  Sn5       1.0  0.05344  0.27895  0.75415  1.0000
  C  Sn6       1.0  0.06933  0.29712  0.90451  1.0000
  C   C31       1.0  0.02744  0.31125  0.01190  1.0000
  C   C32       1.0  0.97086  0.30702  0.97144  1.0000
  H   H21       1.0  0.91120  0.28603  0.79183  1.0000
  O  Te5       1.0  0.09408  0.26482  0.64469  1.0000
  O  Te6       1.0  0.12598  0.30130  0.94677  1.0000
  H   H22       1.0  0.93863  0.31809  0.05523  1.0000
  Mg  Mg3       1.0  0.16582  0.27738  0.75719  1.0000
  C   C33       1.0  0.43161  0.18934  0.34666  1.0000
  C   C34       1.0  0.47057  0.18086  0.46543  1.0000
  C  Sn7       1.0  0.52544  0.20218  0.45224  1.0000
  C  Sn8       1.0  0.54147  0.23253  0.31754  1.0000
  C   C35       1.0  0.50218  0.24082  0.19942  1.0000
  C   C36       1.0  0.44739  0.21930  0.21379  1.0000
  H   H23       1.0  0.38922  0.17272  0.35780  1.0000
  O  Te7       1.0  0.56383  0.19331  0.57196  1.0000
  O  Te8       1.0  0.59603  0.25431  0.30138  1.0000
  H   H24       1.0  0.41723  0.22590  0.12186  1.0000
  Mg  Mg4       1.0  0.63323  0.23120  0.49604  1.0000
  C   C37       1.0  0.22180  0.44983  0.66504  1.0000
  C   C38       1.0  0.23753  0.49038  0.77444  1.0000
  C  Sn9       1.0  0.22655  0.54722  0.74787  1.0000
  C  Sn10      1.0  0.19930  0.56364  0.60912  1.0000
  C   C39       1.0  0.18370  0.52274  0.50046  1.0000
  C   C40       1.0  0.19490  0.46599  0.52819  1.0000
  H   H25       1.0  0.23045  0.40591  0.68653  1.0000
  O  Te9       1.0  0.24256  0.58718  0.85836  1.0000
  O  Te10      1.0  0.18779  0.62015  0.57966  1.0000
  H   H26       1.0  0.18269  0.43460  0.44352  1.0000
  Mg  Mg5       1.0  0.21777  0.65899  0.76544  1.0000
  C   C41       1.0  0.30478  0.92836  0.14464  1.0000
  C   C42       1.0  0.30954  0.96630  0.02156  1.0000
  C  Sn11      1.0  0.27939  0.02178  0.03870  1.0000
  C  Sn12      1.0  0.25641  0.03948  0.18187  1.0000
  C   C43       1.0  0.25187  0.00121  0.30433  1.0000
  C   C44       1.0  0.28215  0.94579  0.28590  1.0000
  H   H27       1.0  0.31869  0.88549  0.13042  1.0000
  O  Te11      1.0  0.28475  0.05887  0.91453  1.0000
  O  Te12      1.0  0.23829  0.09468  0.20217  1.0000
  H   H28       1.0  0.27849  0.91643  0.38125  1.0000
  Mg  Mg6       1.0  0.25417  0.12972  0.99879  1.0000
  C   C45       1.0  0.05037  0.21493  0.32813  1.0000
  C   C46       1.0  0.00251  0.18946  0.26349  1.0000
  C  Sn13      1.0  0.95053  0.19305  0.33809  1.0000
  C  Sn14      1.0  0.94651  0.22272  0.47999  1.0000
  C   C47       1.0  0.99462  0.24809  0.54365  1.0000
  C   C48       1.0  0.04644  0.24422  0.46806  1.0000
  H   H29       1.0  0.09045  0.21197  0.26962  1.0000
  O  Te13      1.0  0.90314  0.16734  0.27193  1.0000
  O  Te14      1.0  0.89507  0.22698  0.55695  1.0000
  H   H30       1.0  0.08348  0.26398  0.51808  1.0000
  Mg  Mg7       1.0  0.84244  0.18485  0.42067  1.0000
  C   C49       1.0  0.45607  0.29227  0.83518  1.0000
  C   C50       1.0  0.50506  0.31259  0.76399  1.0000
  C  Sn15      1.0  0.55739  0.30544  0.83476  1.0000
  C  Sn16      1.0  0.56061  0.27741  0.97946  1.0000
  C   C51       1.0  0.51102  0.25746  0.04968  1.0000
  C   C52       1.0  0.45920  0.26459  0.97787  1.0000
  H   H31       1.0  0.41572  0.29796  0.77958  1.0000
  O  Te15      1.0  0.60592  0.32603  0.76207  1.0000
  O  Te16      1.0  0.61203  0.26994  0.05272  1.0000
  H   H32       1.0  0.42095  0.24909  0.03296  1.0000
  Mg  Mg8       1.0  0.66665  0.30523  0.90775  1.0000
  C   C53       1.0  0.27576  0.43025  0.04985  1.0000
  C   C54       1.0  0.26016  0.47974  0.97636  1.0000
  C  Sn17      1.0  0.27359  0.53218  0.04166  1.0000
  C  Sn18      1.0  0.30388  0.53445  0.18314  1.0000
  C   C55       1.0  0.31966  0.48443  0.25570  1.0000
  C   C56       1.0  0.30566  0.43245  0.18937  1.0000
  H   H33       1.0  0.26529  0.38977  0.99849  1.0000
  O  Te17      1.0  0.25766  0.58121  0.96674  1.0000
  O  Te18      1.0  0.31820  0.58602  0.25092  1.0000
  H   H34       1.0  0.31803  0.39394  0.24624  1.0000
  Mg  Mg9       1.0  0.28664  0.64159  0.10476  1.0000
  C   C57       1.0  0.20299  0.07028  0.60994  1.0000
  C   C58       1.0  0.18534  0.03013  0.71836  1.0000
  C  Sn19      1.0  0.20770  0.97304  0.69314  1.0000
  C  Sn20      1.0  0.23595  0.95596  0.55677  1.0000
  C   C59       1.0  0.25349  0.99645  0.44907  1.0000
  C   C60       1.0  0.23088  0.05346  0.47543  1.0000
  H   H35       1.0  0.19508  0.11439  0.63037  1.0000
  O  Te19      1.0  0.18976  0.93348  0.80263  1.0000
  O  Te20      1.0  0.24654  0.89918  0.52870  1.0000
  H   H36       1.0  0.24459  0.08454  0.39152  1.0000
  Mg  Mg10      1.0  0.21392  0.86109  0.71232  1.0000
  C   C61       1.0  0.56631  0.78540  0.28431  1.0000
  C   C62       1.0  0.51749  0.76160  0.22036  1.0000
  C  Sn21      1.0  0.46604  0.76594  0.29736  1.0000
  C  Sn22      1.0  0.46354  0.79467  0.44101  1.0000
  C   C63       1.0  0.51261  0.81837  0.50398  1.0000
  C   C64       1.0  0.56388  0.81376  0.42597  1.0000
  H   H37       1.0  0.60597  0.78187  0.22393  1.0000
  O  Te21      1.0  0.41768  0.74190  0.23185  1.0000
  O  Te22      1.0  0.41267  0.79965  0.52040  1.0000
  H   H38       1.0  0.60166  0.83223  0.47547  1.0000
  Mg  Mg11      1.0  0.35827  0.75983  0.38411  1.0000
  C   C65       1.0  0.04420  0.70413  0.90370  1.0000
  C   C66       1.0  0.99624  0.69682  0.99543  1.0000
  C  Sn23      1.0  0.94304  0.70889  0.93589  1.0000
  C  Sn24      1.0  0.93788  0.72864  0.78160  1.0000
  C   C67       1.0  0.98611  0.73577  0.69074  1.0000
  C   C68       1.0  0.03914  0.72357  0.75149  1.0000
  H   H39       1.0  0.08523  0.69466  0.95067  1.0000
  O  Te23      1.0  0.89524  0.70164  0.02914  1.0000
  O  Te24      1.0  0.88522  0.74101  0.71917  1.0000
  H   H40       1.0  0.07626  0.72920  0.68040  1.0000
  Mg  Mg12      1.0  0.83297  0.72399  0.89183  1.0000
  C   C69       1.0  0.68859  0.06627  0.15135  1.0000
  C   C70       1.0  0.68682  0.02993  0.02430  1.0000
  C  Sn25      1.0  0.72022  0.97546  0.03674  1.0000
  C  Sn26      1.0  0.74344  0.95714  0.17919  1.0000
  C   C71       1.0  0.74498  0.99380  0.30565  1.0000
  C   C72       1.0  0.71147  0.04822  0.29191  1.0000
  H   H41       1.0  0.67218  0.10837  0.14076  1.0000
  O  Te25      1.0  0.71848  0.93944  0.90864  1.0000
  O  Te26      1.0  0.76477  0.90291  0.19484  1.0000
  H   H42       1.0  0.71281  0.07633  0.39033  1.0000
  Mg  Mg13      1.0  0.75284  0.86945  0.98726  1.0000
  C   C73       1.0  0.80103  0.43101  0.64107  1.0000
  C   C74       1.0  0.80670  0.47009  0.52099  1.0000
  C  Sn27      1.0  0.79419  0.52667  0.54596  1.0000
  C  Sn28      1.0  0.77568  0.54433  0.69403  1.0000
  C   C75       1.0  0.77018  0.50491  0.81343  1.0000
  C   C76       1.0  0.78280  0.44839  0.78717  1.0000
  H   H43       1.0  0.81082  0.38728  0.62079  1.0000
  O  Te27      1.0  0.80006  0.56516  0.42469  1.0000
  O  Te28      1.0  0.76290  0.60062  0.72217  1.0000
  H   H44       1.0  0.77844  0.41814  0.88019  1.0000
  Mg  Mg14      1.0  0.77751  0.63724  0.52003  1.0000
  C   C77       1.0  0.42745  0.69337  0.89523  1.0000
  C   C78       1.0  0.46616  0.68819  0.77457  1.0000
  C  Sn29      1.0  0.52250  0.70375  0.79674  1.0000
  C  Sn30      1.0  0.54030  0.72485  0.94257  1.0000
  C   C79       1.0  0.50092  0.73011  0.06258  1.0000
  C   C80       1.0  0.44464  0.71443  0.03912  1.0000
  H   H45       1.0  0.38391  0.68122  0.87712  1.0000
  O  Te29      1.0  0.56061  0.69831  0.67492  1.0000
  O  Te30      1.0  0.59636  0.74069  0.96790  1.0000
  H   H46       1.0  0.41469  0.71842  0.13260  1.0000
  Mg  Mg15      1.0  0.63249  0.72548  0.76608  1.0000
  C   C81       1.0  0.06420  0.79994  0.37864  1.0000
  C   C82       1.0  0.02312  0.81160  0.26770  1.0000
  C  Sn31      1.0  0.96631  0.80111  0.29966  1.0000
  C  Sn32      1.0  0.95046  0.77853  0.44551  1.0000
  C   C83       1.0  0.99187  0.76705  0.55576  1.0000
  C   C84       1.0  0.04860  0.77769  0.52255  1.0000
  H   H47       1.0  0.10809  0.80820  0.35299  1.0000
  O  Te31      1.0  0.92581  0.81299  0.18748  1.0000
  O  Te32      1.0  0.89398  0.76766  0.48052  1.0000
  H   H48       1.0  0.08039  0.76869  0.60851  1.0000
  Mg  Mg16      1.0  0.85429  0.79089  0.28974  1.0000
  C   C85       1.0  0.89924  0.05304  0.34819  1.0000
  C   C86       1.0  0.93774  0.01155  0.38900  1.0000
  C  Sn33      1.0  0.95612  0.96377  0.29664  1.0000
  C  Sn34      1.0  0.92296  0.95752  0.16095  1.0000
  C   C87       1.0  0.88460  0.99928  0.12106  1.0000
  C   C88       1.0  0.86654  0.04692  0.21434  1.0000
  H   H49       1.0  0.89483  0.08991  0.42031  1.0000
  O  Te33      1.0  0.99476  0.92271  0.33914  1.0000
  O  Te34      1.0  0.92817  0.91020  0.06652  1.0000
  H   H50       1.0  0.83676  0.07905  0.18265  1.0000
  Mg  Mg17      1.0  0.98660  0.86577  0.17307  1.0000
  C   C89       1.0  0.56491  0.55603  0.75983  1.0000
  C   C90       1.0  0.55123  0.51311  0.86440  1.0000
  C  Sn35      1.0  0.58009  0.46223  0.86083  1.0000
  C  Sn36      1.0  0.62343  0.45431  0.75041  1.0000
  C   C91       1.0  0.63683  0.49752  0.64636  1.0000
  C   C92       1.0  0.60767  0.54826  0.65093  1.0000
  H   H51       1.0  0.54238  0.59529  0.76341  1.0000
  O  Te35      1.0  0.56587  0.41978  0.96611  1.0000
  O  Te36      1.0  0.65296  0.40389  0.74432  1.0000
  H   H52       1.0  0.61830  0.58149  0.57001  1.0000
  Mg  Mg18      1.0  0.61819  0.35858  0.91207  1.0000
  C   C93       1.0  0.05593  0.41667  0.44473  1.0000
  C   C94       1.0  0.01204  0.38089  0.39763  1.0000
  C  Sn37      1.0  0.95957  0.38328  0.47005  1.0000
  C  Sn38      1.0  0.95100  0.42226  0.59183  1.0000
  C   C95       1.0  0.99516  0.45790  0.63803  1.0000
  C   C96       1.0  0.04750  0.45514  0.56480  1.0000
  H   H53       1.0  0.09642  0.41456  0.38803  1.0000
  O  Te37      1.0  0.91618  0.34722  0.42159  1.0000
  O  Te38      1.0  0.89897  0.42555  0.66617  1.0000
  H   H54       1.0  0.08147  0.48287  0.60123  1.0000
  Mg  Mg19      1.0  0.85287  0.36758  0.55875  1.0000
  C   C97       1.0  0.54622  0.10050  0.10421  1.0000
  C   C98       1.0  0.50585  0.05942  0.14152  1.0000
  C  Sn39      1.0  0.45964  0.05003  0.04440  1.0000
  C  Sn40      1.0  0.45418  0.08217  0.90744  1.0000
  C   C99       1.0  0.49482  0.12314  0.87108  1.0000
  C   C100      1.0  0.54088  0.13219  0.96911  1.0000
  H   H55       1.0  0.58188  0.10749  0.18000  1.0000
  O  Te39      1.0  0.41969  0.00884  0.08345  1.0000
  O  Te40      1.0  0.40842  0.07364  0.80829  1.0000
  H   H56       1.0  0.57215  0.16398  0.94014  1.0000
  Mg  Mg20      1.0  0.36506  0.01261  0.91141  1.0000
  C   C101      1.0  0.11000  0.44148  0.98713  1.0000
  C   C102      1.0  0.12948  0.48497  0.08315  1.0000
  C  Sn41      1.0  0.10770  0.53913  0.07007  1.0000
  C  Sn42      1.0  0.06562  0.54983  0.95873  1.0000
  C   C103      1.0  0.04605  0.50629  0.86329  1.0000
  C   C104      1.0  0.06815  0.45225  0.87731  1.0000
  H   H57       1.0  0.12707  0.39966  0.99803  1.0000
  O  Te41      1.0  0.12799  0.58183  0.16689  1.0000
  O  Te42      1.0  0.04310  0.60357  0.94324  1.0000
  H   H58       1.0  0.05278  0.41879  0.80302  1.0000
  Mg  Mg21      1.0  0.08411  0.64813  0.10167  1.0000
  C   C105      1.0  0.39512  0.04262  0.38622  1.0000
  C   C106      1.0  0.44037  0.00667  0.36178  1.0000
  C  Sn43      1.0  0.46172  0.96131  0.46139  1.0000
  C  Sn44      1.0  0.42467  0.95187  0.58769  1.0000
  C   C107      1.0  0.37950  0.98805  0.61109  1.0000
  C   C108      1.0  0.35854  0.03332  0.51073  1.0000
  H   H59       1.0  0.38843  0.07763  0.30854  1.0000
  O  Te43      1.0  0.50715  0.92581  0.43533  1.0000
  O  Te44      1.0  0.43269  0.90684  0.68900  1.0000
  H   H60       1.0  0.32348  0.06113  0.52963  1.0000
  Mg  Mg22      1.0  0.50058  0.87016  0.60534  1.0000
  C   C109      1.0  0.94905  0.06100  0.75516  1.0000
  C   C110      1.0  0.98497  0.05593  0.62809  1.0000
  C  Sn45      1.0  0.03427  0.08846  0.61929  1.0000
  C  Sn46      1.0  0.04775  0.12672  0.74014  1.0000
  C   C111      1.0  0.01156  0.13145  0.86682  1.0000
  C   C112      1.0  0.96233  0.09872  0.87444  1.0000
  H   H61       1.0  0.91098  0.03565  0.76111  1.0000
  O  Te45      1.0  0.06967  0.08289  0.49148  1.0000
  O  Te46      1.0  0.09676  0.15973  0.73430  1.0000
  H   H62       1.0  0.93455  0.10262  0.97289  1.0000
  Mg  Mg23      1.0  0.13162  0.13705  0.53625  1.0000
  C   C113      1.0  0.44918  0.39872  0.14868  1.0000
  C   C114      1.0  0.48819  0.44187  0.11873  1.0000
  C  Sn47      1.0  0.53679  0.44728  0.20894  1.0000
  C  Sn48      1.0  0.54640  0.40871  0.33130  1.0000
  C   C115      1.0  0.50714  0.36567  0.36026  1.0000
  C   C116      1.0  0.45864  0.36065  0.26931  1.0000
  H   H63       1.0  0.41167  0.39482  0.07827  1.0000
  O  Te47      1.0  0.57532  0.49064  0.17747  1.0000
  O  Te48      1.0  0.59463  0.41314  0.42322  1.0000
  H   H64       1.0  0.42846  0.32722  0.29246  1.0000
  Mg  Mg24      1.0  0.63472  0.47930  0.33504  1.0000
  C   C117      1.0  0.38189  0.55026  0.78397  1.0000
  C   C118      1.0  0.37452  0.51194  0.66281  1.0000
  C  Sn49      1.0  0.40555  0.46237  0.65909  1.0000
  C  Sn50      1.0  0.44462  0.45107  0.77909  1.0000
  C   C119      1.0  0.45165  0.48965  0.89985  1.0000
  C   C120      1.0  0.42040  0.53913  0.90241  1.0000
  H   H65       1.0  0.35769  0.58852  0.78601  1.0000
  O  Te49      1.0  0.39768  0.42455  0.53715  1.0000
  O  Te50      1.0  0.47616  0.40185  0.77826  1.0000
  H   H66       1.0  0.42609  0.56877  0.99629  1.0000
  Mg  Mg25      1.0  0.45051  0.36329  0.58729  1.0000
  C   C121      1.0  0.07786  0.05433  0.17273  1.0000
  C   C122      1.0  0.12036  0.01566  0.14297  1.0000
  C  Sn51      1.0  0.13877  0.96832  0.23727  1.0000
  C  Sn52      1.0  0.10155  0.95964  0.36359  1.0000
  C   C123      1.0  0.05915  0.99856  0.39233  1.0000
  C   C124      1.0  0.04112  0.04580  0.29726  1.0000
  H   H67       1.0  0.07343  0.09086  0.09914  1.0000
  O  Te51      1.0  0.18147  0.93011  0.20593  1.0000
  O  Te52      1.0  0.10667  0.91268  0.45964  1.0000
  H   H68       1.0  0.00819  0.07571  0.32028  1.0000
  Mg  Mg26      1.0  0.17149  0.87256  0.36992  1.0000
  C   C125      1.0  0.45380  0.87174  0.04528  1.0000
  C   C126      1.0  0.49011  0.86831  0.91783  1.0000
  C  Sn53      1.0  0.53649  0.90478  0.90574  1.0000
  C  Sn54      1.0  0.54661  0.94539  0.02363  1.0000
  C   C127      1.0  0.51038  0.94819  0.15073  1.0000
  C   C128      1.0  0.46409  0.91150  0.16164  1.0000
  H   H69       1.0  0.41800  0.84333  0.05377  1.0000
  O  Te53      1.0  0.57200  0.90106  0.77760  1.0000
  O  Te54      1.0  0.59266  0.98234  0.01449  1.0000
  H   H70       1.0  0.43626  0.91394  0.26038  1.0000
  Mg  Mg27      1.0  0.62926  0.96064  0.81731  1.0000
  C   C129      1.0  0.94826  0.59204  0.45014  1.0000
  C   C130      1.0  0.99257  0.62773  0.40563  1.0000
  C  Sn55      1.0  0.04485  0.62439  0.47905  1.0000
  C  Sn56      1.0  0.05279  0.58452  0.59918  1.0000
  C   C131      1.0  0.00821  0.54897  0.64278  1.0000
  C   C132      1.0  0.95607  0.55269  0.56858  1.0000
  H   H71       1.0  0.90793  0.59490  0.39268  1.0000
  O  Te55      1.0  0.08866  0.66038  0.43318  1.0000
  O  Te56      1.0  0.10461  0.58026  0.67446  1.0000
  H   H72       1.0  0.92178  0.52503  0.60299  1.0000
  Mg  Mg28      1.0  0.15147  0.63852  0.57072  1.0000
  C   C133      1.0  0.62303  0.95270  0.45789  1.0000
  C   C134      1.0  0.63230  0.99338  0.57213  1.0000
  C  Sn57      1.0  0.58441  0.03959  0.58387  1.0000
  C  Sn58      1.0  0.53876  0.04506  0.47916  1.0000
  C   C135      1.0  0.52983  0.00411  0.36535  1.0000
  C   C136      1.0  0.57801  0.95804  0.35461  1.0000
  H   H73       1.0  0.65074  0.91704  0.44962  1.0000
  O  Te57      1.0  0.59428  0.07986  0.69866  1.0000
  O  Te58      1.0  0.50257  0.09081  0.48834  1.0000
  H   H74       1.0  0.57080  0.92653  0.26621  1.0000
  Mg  Mg29      1.0  0.53334  0.13467  0.66455  1.0000
  C   C137      1.0  0.91189  0.55988  0.92181  1.0000
  C   C138      1.0  0.94613  0.51612  0.87159  1.0000
  C  Sn59      1.0  0.94260  0.46325  0.94209  1.0000
  C  Sn60      1.0  0.90369  0.45441  0.06508  1.0000
  C   C139      1.0  0.86959  0.49845  0.11440  1.0000
  C   C140      1.0  0.87348  0.55119  0.04307  1.0000
  H   H75       1.0  0.91487  0.60068  0.86658  1.0000
  O  Te59      1.0  0.97714  0.42000  0.89052  1.0000
  O  Te60      1.0  0.89929  0.40198  0.13755  1.0000
  H   H76       1.0  0.84693  0.58506  0.08191  1.0000
  Mg  Mg30      1.0  0.95534  0.35626  0.02605  1.0000
  C   C141      1.0  0.55183  0.59817  0.15595  1.0000
  C   C142      1.0  0.51264  0.55574  0.12058  1.0000
  C  Sn61      1.0  0.46303  0.55033  0.20631  1.0000
  C  Sn62      1.0  0.45257  0.58816  0.32965  1.0000
  C   C143      1.0  0.49203  0.63050  0.36404  1.0000
  C   C144      1.0  0.54154  0.63553  0.27754  1.0000
  H   H77       1.0  0.59012  0.60209  0.08898  1.0000
  O  Te61      1.0  0.42434  0.50768  0.16946  1.0000
  O  Te62      1.0  0.40333  0.58371  0.41717  1.0000
  H   H78       1.0  0.57185  0.66840  0.30489  1.0000
  Mg  Mg31      1.0  0.36341  0.51869  0.32240  1.0000
  C   C145      1.0  0.04888  0.92030  0.81457  1.0000
  C   C146      1.0  0.00395  0.88527  0.85829  1.0000
  C  Sn63      1.0  0.95566  0.88158  0.76625  1.0000
  C  Sn64      1.0  0.95243  0.91359  0.62792  1.0000
  C   C147      1.0  0.99763  0.94848  0.58514  1.0000
  C   C148      1.0  0.04574  0.95187  0.67813  1.0000
  H   H79       1.0  0.08612  0.92290  0.88646  1.0000
  O  Te63      1.0  0.91114  0.84640  0.81166  1.0000
  O  Te64      1.0  0.90468  0.91068  0.53376  1.0000
  H   H80       1.0  0.08054  0.97897  0.64420  1.0000
  Mg  Mg32      1.0  0.85500  0.85671  0.64477  1.0000
