data_image0
_chemical_formula_structural       C10H2C4H4C8H4C4H4N8C8H8C10H5C5H5C10H5C5H5C24NHNH2N2HC4H4NHNH2N2H5SnCSn2CSnTe4Mg2SnCSn2CSnTe4Mg2SnCSn2CSnTe4Mg2SnCSn2CSnTe4Mg2SnCSn2CSnTe4Mg2SnCSn2CSnTe4Mg2SnCSn2CSnTe4Mg2
_chemical_formula_sum              "C106 H58 N16 Sn28 Te28 Mg14"
_cell_length_a       25.6103
_cell_length_b       26.3755
_cell_length_c       8.1202
_cell_angle_alpha    90.2845
_cell_angle_beta     90.0076
_cell_angle_gamma    89.8193

_symmetry_space_group_name_H-M    'P1'
_space_group_IT_number       1

loop_
  _space_group_symop_operation_xyz
  'x, y, z'

loop_
  _atom_site_type_symbol
  _atom_site_label
  _atom_site_symmetry_multiplicity
  _atom_site_fract_x
  _atom_site_fract_y
  _atom_site_fract_z
  _atom_site_occupancy
  C   C1        1.0  0.24895  0.25055  0.25251  1.0000
  C   C2        1.0  0.75279  0.74900  0.74549  1.0000
  C   C3        1.0  0.78048  0.78490  0.62495  1.0000
  C   C4        1.0  0.71872  0.77602  0.87433  1.0000
  C   C5        1.0  0.79016  0.71879  0.85622  1.0000
  C   C6        1.0  0.21399  0.28088  0.13380  1.0000
  C   C7        1.0  0.81098  0.76369  0.49858  1.0000
  C   C8        1.0  0.73171  0.75923  0.03386  1.0000
  C   C9        1.0  0.77377  0.72191  0.02159  1.0000
  C   C10       1.0  0.23782  0.31647  0.02982  1.0000
  H   H1        1.0  0.81578  0.72277  0.49240  1.0000
  H   H2        1.0  0.27893  0.32560  0.04555  1.0000
  C   C11       1.0  0.83320  0.79343  0.37651  1.0000
  C   C12       1.0  0.70822  0.77960  0.17347  1.0000
  C   C13       1.0  0.79764  0.69347  0.14520  1.0000
  C   C14       1.0  0.21090  0.33809  0.89933  1.0000
  H   H3        1.0  0.85455  0.77573  0.27561  1.0000
  H   H4        1.0  0.72012  0.76805  0.29567  1.0000
  H   H5        1.0  0.78341  0.69547  0.27098  1.0000
  H   H6        1.0  0.23147  0.36313  0.81564  1.0000
  C   C15       1.0  0.82436  0.84613  0.37406  1.0000
  C   C16       1.0  0.67015  0.81757  0.15596  1.0000
  C   C17       1.0  0.84189  0.66415  0.10645  1.0000
  C   C18       1.0  0.15869  0.32460  0.86670  1.0000
  C   C19       1.0  0.79423  0.86777  0.50071  1.0000
  C   C20       1.0  0.65548  0.83315  0.99653  1.0000
  C   C21       1.0  0.85959  0.66294  0.94201  1.0000
  C   C22       1.0  0.13454  0.28948  0.97149  1.0000
  H   H7        1.0  0.78720  0.90845  0.49998  1.0000
  H   H8        1.0  0.62490  0.86148  0.98189  1.0000
  H   H9        1.0  0.89291  0.63955  0.90792  1.0000
  H   H10       1.0  0.09438  0.27859  0.94602  1.0000
  C   C23       1.0  0.77356  0.83771  0.62563  1.0000
  C   C24       1.0  0.67963  0.81253  0.85651  1.0000
  C   C25       1.0  0.83353  0.68903  0.81713  1.0000
  C   C26       1.0  0.16171  0.26812  0.10303  1.0000
  H   H11       1.0  0.75082  0.85572  0.72256  1.0000
  H   H12       1.0  0.66805  0.82625  0.73594  1.0000
  H   H13       1.0  0.84830  0.68582  0.69197  1.0000
  H   H14       1.0  0.14240  0.24012  0.17947  1.0000
  N   N1        1.0  0.34663  0.36167  0.77875  1.0000
  N   N2        1.0  0.64532  0.62125  0.27963  1.0000
  N   N3        1.0  0.15397  0.14137  0.78367  1.0000
  N   N4        1.0  0.84242  0.87599  0.24367  1.0000
  N   N5        1.0  0.64721  0.83728  0.29999  1.0000
  N   N6        1.0  0.36203  0.15431  0.72375  1.0000
  N   N7        1.0  0.87208  0.64018  0.22880  1.0000
  N   N8        1.0  0.13168  0.34087  0.72632  1.0000
  C   C27       1.0  0.39437  0.35470  0.82709  1.0000
  C   C28       1.0  0.60048  0.63184  0.21487  1.0000
  C   C29       1.0  0.10664  0.14860  0.83499  1.0000
  C   C30       1.0  0.89065  0.87061  0.20000  1.0000
  C   C31       1.0  0.64283  0.88581  0.31664  1.0000
  C   C32       1.0  0.35311  0.10924  0.66629  1.0000
  C   C33       1.0  0.85001  0.61299  0.34085  1.0000
  C   C34       1.0  0.14119  0.38557  0.66883  1.0000
  H   H15       1.0  0.42205  0.33171  0.75459  1.0000
  H   H16       1.0  0.57389  0.66042  0.26811  1.0000
  H   H17       1.0  0.07867  0.17199  0.76580  1.0000
  H   H18       1.0  0.91806  0.84781  0.27379  1.0000
  H   H19       1.0  0.65928  0.91171  0.22450  1.0000
  H   H20       1.0  0.32744  0.08234  0.73012  1.0000
  H   H21       1.0  0.80809  0.60408  0.33547  1.0000
  H   H22       1.0  0.16619  0.41255  0.73596  1.0000
  C   C35       1.0  0.41524  0.37900  0.97429  1.0000
  C   C36       1.0  0.58193  0.60640  0.06692  1.0000
  C   C37       1.0  0.08689  0.12307  0.98054  1.0000
  C   C38       1.0  0.61659  0.90949  0.45714  1.0000
  C   C39       1.0  0.11898  0.40470  0.51677  1.0000
  C   C40       1.0  0.46952  0.37952  0.00320  1.0000
  C   C41       1.0  0.53089  0.61587  0.01086  1.0000
  C   C42       1.0  0.03272  0.11919  0.00675  1.0000
  C   C43       1.0  0.61285  0.96264  0.46626  1.0000
  C   C44       1.0  0.12589  0.45633  0.48039  1.0000
  H   H23       1.0  0.49549  0.35989  0.91768  1.0000
  H   H24       1.0  0.50661  0.64315  0.07697  1.0000
  H   H25       1.0  0.00602  0.13772  0.92148  1.0000
  H   H26       1.0  0.63055  0.98561  0.37035  1.0000
  H   H27       1.0  0.14948  0.47955  0.56287  1.0000
  C   C45       1.0  0.49040  0.40546  0.13751  1.0000
  C   C46       1.0  0.51111  0.59019  0.87465  1.0000
  C   C47       1.0  0.01310  0.09087  0.13675  1.0000
  C   C48       1.0  0.58609  0.98639  0.59460  1.0000
  C   C49       1.0  0.10151  0.47833  0.34570  1.0000
  H   H28       1.0  0.53239  0.40500  0.15739  1.0000
  H   H29       1.0  0.47113  0.59653  0.83508  1.0000
  H   H30       1.0  0.97109  0.08840  0.15447  1.0000
  H   H31       1.0  0.58188  0.02734  0.59687  1.0000
  H   H32       1.0  0.10553  0.51865  0.32381  1.0000
  C   C50       1.0  0.45799  0.43235  0.24837  1.0000
  C   C51       1.0  0.54243  0.55511  0.78818  1.0000
  C   C52       1.0  0.04680  0.06548  0.24666  1.0000
  C   C53       1.0  0.56260  0.95784  0.72072  1.0000
  C   C54       1.0  0.06914  0.44929  0.24122  1.0000
  C   C55       1.0  0.40353  0.43111  0.21892  1.0000
  C   C56       1.0  0.59450  0.54749  0.84000  1.0000
  C   C57       1.0  0.10122  0.07035  0.22077  1.0000
  C   C58       1.0  0.56661  0.90435  0.71117  1.0000
  C   C59       1.0  0.06518  0.39664  0.27206  1.0000
  H   H33       1.0  0.37755  0.45327  0.29699  1.0000
  H   H34       1.0  0.61884  0.52040  0.77339  1.0000
  H   H35       1.0  0.12837  0.04970  0.29876  1.0000
  H   H36       1.0  0.54738  0.88103  0.80317  1.0000
  H   H37       1.0  0.04116  0.37322  0.19180  1.0000
  C   C60       1.0  0.38258  0.40473  0.08665  1.0000
  C   C61       1.0  0.61388  0.57245  0.97776  1.0000
  C   C62       1.0  0.12081  0.09853  0.09122  1.0000
  C   C63       1.0  0.59294  0.88076  0.58234  1.0000
  C   C64       1.0  0.08950  0.37468  0.40710  1.0000
  H   H38       1.0  0.34060  0.40455  0.06546  1.0000
  H   H39       1.0  0.65358  0.56616  0.02086  1.0000
  H   H40       1.0  0.16269  0.10095  0.06992  1.0000
  H   H41       1.0  0.59489  0.83960  0.57395  1.0000
  H   H42       1.0  0.08515  0.33442  0.43234  1.0000
  C   C65       1.0  0.47968  0.46193  0.38616  1.0000
  C   C66       1.0  0.52100  0.52528  0.65060  1.0000
  C   C67       1.0  0.02579  0.03432  0.38075  1.0000
  C   C68       1.0  0.98256  0.97206  0.64519  1.0000
  C   C69       1.0  0.53366  0.98262  0.85610  1.0000
  C   C70       1.0  0.47108  0.02680  0.12245  1.0000
  C   C71       1.0  0.97086  0.52170  0.86489  1.0000
  C   C72       1.0  0.03785  0.47385  0.11155  1.0000
  C   C73       1.0  0.45159  0.47213  0.53219  1.0000
  C   C74       1.0  0.54978  0.51407  0.50752  1.0000
  C   C75       1.0  0.05138  0.02735  0.53269  1.0000
  C   C76       1.0  0.95741  0.97863  0.49250  1.0000
  C   C77       1.0  0.52759  0.95929  0.01067  1.0000
  C   C78       1.0  0.47843  0.05107  0.97011  1.0000
  C   C79       1.0  0.98879  0.54754  0.00555  1.0000
  C   C80       1.0  0.01929  0.44790  0.97159  1.0000
  C   C81       1.0  0.47059  0.50404  0.66027  1.0000
  C   C82       1.0  0.52969  0.48412  0.37957  1.0000
  C   C83       1.0  0.03145  0.99652  0.66164  1.0000
  C   C84       1.0  0.97813  0.00808  0.36566  1.0000
  C   C85       1.0  0.49779  0.98032  0.13855  1.0000
  C   C86       1.0  0.50926  0.03059  0.83969  1.0000
  C   C87       1.0  0.02187  0.52522  0.12595  1.0000
  C   C88       1.0  0.98714  0.47082  0.85309  1.0000
  N   N9        1.0  0.43499  0.50629  0.78969  1.0000
  H   H43       1.0  0.55283  0.47937  0.26817  1.0000
  N   N10       1.0  0.06528  0.99783  0.79603  1.0000
  H   H44       1.0  0.95736  0.00928  0.24892  1.0000
  H   H45       1.0  0.49668  0.96089  0.25644  1.0000
  N   N11       1.0  0.50821  0.06315  0.70518  1.0000
  N   N12       1.0  0.03146  0.55989  0.25228  1.0000
  H   H46       1.0  0.97581  0.44914  0.74463  1.0000
  C   C89       1.0  0.39651  0.47641  0.74437  1.0000
  C   C90       1.0  0.10332  0.02835  0.75270  1.0000
  C   C91       1.0  0.47800  0.10122  0.75028  1.0000
  C   C92       1.0  0.00489  0.60081  0.21211  1.0000
  H   H47       1.0  0.36220  0.46776  0.81665  1.0000
  H   H48       1.0  0.13641  0.03885  0.82827  1.0000
  H   H49       1.0  0.46792  0.13371  0.67558  1.0000
  H   H50       1.0  0.00256  0.63538  0.28435  1.0000
  N   N13       1.0  0.40403  0.45483  0.59069  1.0000
  H   H51       1.0  0.58831  0.53077  0.49286  1.0000
  N   N14       1.0  0.09729  0.04735  0.59586  1.0000
  H   H52       1.0  0.92082  0.95895  0.46988  1.0000
  H   H53       1.0  0.54812  0.92390  0.03422  1.0000
  N   N15       1.0  0.45861  0.09602  0.90766  1.0000
  N   N16       1.0  0.97920  0.59621  0.06421  1.0000
  H   H54       1.0  0.03133  0.40878  0.95133  1.0000
  H   H55       1.0  0.38134  0.42738  0.53985  1.0000
  H   H56       1.0  0.11936  0.07515  0.54535  1.0000
  H   H57       1.0  0.43147  0.11889  0.96128  1.0000
  H   H58       1.0  0.94973  0.61963  0.02923  1.0000
  C  Sn1       1.0  0.38994  0.01889  0.36149  1.0000
  C   C93       1.0  0.42116  0.04457  0.24826  1.0000
  C  Sn2       1.0  0.43608  0.09468  0.27805  1.0000
  C  Sn3       1.0  0.41947  0.11964  0.42411  1.0000
  C   C94       1.0  0.38828  0.09397  0.53725  1.0000
  C  Sn4       1.0  0.37334  0.04385  0.50754  1.0000
  O  Te1       1.0  0.37226  0.96881  0.32918  1.0000
  O  Te2       1.0  0.46729  0.11957  0.16300  1.0000
  O  Te3       1.0  0.43394  0.16977  0.45634  1.0000
  O  Te4       1.0  0.34215  0.01897  0.62251  1.0000
  Mg  Mg1       1.0  0.47678  0.18762  0.26235  1.0000
  Mg  Mg2       1.0  0.32942  0.95091  0.52333  1.0000
  C  Sn5       1.0  0.94124  0.60818  0.67456  1.0000
  C   C95       1.0  0.93222  0.56222  0.75444  1.0000
  C  Sn6       1.0  0.89759  0.52685  0.68763  1.0000
  C  Sn7       1.0  0.87144  0.53762  0.53778  1.0000
  C   C96       1.0  0.88047  0.58355  0.45797  1.0000
  C  Sn8       1.0  0.91509  0.61895  0.52472  1.0000
  O  Te5       1.0  0.97603  0.64297  0.74359  1.0000
  O  Te6       1.0  0.88920  0.48117  0.76977  1.0000
  O  Te7       1.0  0.83663  0.50278  0.46879  1.0000
  O  Te8       1.0  0.92349  0.66460  0.44265  1.0000
  Mg  Mg3       1.0  0.83819  0.44587  0.62670  1.0000
  Mg  Mg4       1.0  0.97451  0.69992  0.58555  1.0000
  C  Sn9       1.0  0.26554  0.16420  0.03486  1.0000
  C   C97       1.0  0.28390  0.20202  0.14097  1.0000
  C  Sn10      1.0  0.32897  0.22914  0.10210  1.0000
  C  Sn11      1.0  0.35628  0.21979  0.95403  1.0000
  C   C98       1.0  0.33792  0.18199  0.84800  1.0000
  C  Sn12      1.0  0.29285  0.15484  0.88679  1.0000
  O  Te9       1.0  0.22039  0.13757  0.07620  1.0000
  O  Te10      1.0  0.34658  0.26677  0.21015  1.0000
  O  Te11      1.0  0.40146  0.24646  0.91276  1.0000
  O  Te12      1.0  0.27524  0.11724  0.77883  1.0000
  Mg  Mg5       1.0  0.40994  0.29268  0.09958  1.0000
  Mg  Mg6       1.0  0.21186  0.09133  0.88922  1.0000
  C  Sn13      1.0  0.14929  0.22137  0.55401  1.0000
  C   C99       1.0  0.15830  0.17187  0.60796  1.0000
  C  Sn14      1.0  0.20185  0.14474  0.55239  1.0000
  C  Sn15      1.0  0.23714  0.16756  0.44065  1.0000
  C   C100      1.0  0.22812  0.21703  0.38679  1.0000
  C  Sn16      1.0  0.18458  0.24419  0.44228  1.0000
  O  Te13      1.0  0.10550  0.24778  0.61119  1.0000
  O  Te14      1.0  0.21003  0.09530  0.60802  1.0000
  O  Te15      1.0  0.28095  0.14110  0.38350  1.0000
  O  Te16      1.0  0.17640  0.29360  0.38673  1.0000
  Mg  Mg7       1.0  0.27528  0.07476  0.49489  1.0000
  Mg  Mg8       1.0  0.11118  0.31418  0.49984  1.0000
  C  Sn17      1.0  0.31432  0.25789  0.53055  1.0000
  C   C101      1.0  0.27784  0.27634  0.41752  1.0000
  C  Sn18      1.0  0.26912  0.32843  0.40299  1.0000
  C  Sn19      1.0  0.29746  0.36281  0.50346  1.0000
  C   C102      1.0  0.33392  0.34437  0.61639  1.0000
  C  Sn20      1.0  0.34266  0.29228  0.63103  1.0000
  O  Te17      1.0  0.32241  0.20567  0.54299  1.0000
  O  Te18      1.0  0.23244  0.34596  0.28913  1.0000
  O  Te19      1.0  0.28934  0.41507  0.49094  1.0000
  O  Te20      1.0  0.37932  0.27474  0.74478  1.0000
  Mg  Mg9       1.0  0.23527  0.42049  0.31768  1.0000
  Mg  Mg10      1.0  0.37654  0.20022  0.71628  1.0000
  C  Sn21      1.0  0.97484  0.91496  0.03958  1.0000
  C   C103      1.0  0.92194  0.90623  0.07018  1.0000
  C  Sn22      1.0  0.88516  0.91358  0.94469  1.0000
  C  Sn23      1.0  0.90156  0.92841  0.78526  1.0000
  C   C104      1.0  0.95443  0.93712  0.75472  1.0000
  C  Sn24      1.0  0.99128  0.93132  0.88014  1.0000
  O  Te21      1.0  0.01097  0.90891  0.16687  1.0000
  O  Te22      1.0  0.83249  0.90465  0.97827  1.0000
  O  Te23      1.0  0.86538  0.93445  0.65795  1.0000
  O  Te24      1.0  0.04392  0.94023  0.84663  1.0000
  Mg  Mg11      1.0  0.79807  0.91789  0.76435  1.0000
  Mg  Mg12      1.0  0.07834  0.92545  0.06042  1.0000
  C  Sn25      1.0  0.70084  0.63045  0.57133  1.0000
  C   C105      1.0  0.66209  0.64508  0.45993  1.0000
  C  Sn26      1.0  0.65361  0.69632  0.42611  1.0000
  C  Sn27      1.0  0.68454  0.73373  0.50521  1.0000
  C   C106      1.0  0.72327  0.71909  0.61651  1.0000
  C  Sn28      1.0  0.73177  0.66785  0.65043  1.0000
  O  Te25      1.0  0.70864  0.57900  0.60327  1.0000
  O  Te26      1.0  0.61463  0.71003  0.31432  1.0000
  O  Te27      1.0  0.67671  0.78521  0.47318  1.0000
  O  Te28      1.0  0.77073  0.65414  0.76212  1.0000
  Mg  Mg13      1.0  0.61890  0.78495  0.31139  1.0000
  Mg  Mg14      1.0  0.76651  0.57923  0.76508  1.0000
