data_image0
_chemical_formula_structural       C28H8C8H8C8H8C8H8C6H6C16H8C16H16N16CHCHC2Sn2C2HTe2HMgC2Sn2C2HTe2HMgC2Sn2C2HTe2HMgC2Sn2C2HTe2HMgC2Sn2C2HTe2HMgC2Sn2C2HTe2HMgC2Sn2C2HTe2HMgC2Sn2C2HTe2HMgC2Sn2C2HTe2HMgC2Sn2C2HTe2HMgC2Sn2C2HTe2HMgC2Sn2C2HTe2HMg
_chemical_formula_sum              "C140 H88 N16 Sn24 Te24 Mg12"
_cell_length_a       19.5511
_cell_length_b       19.5541
_cell_length_c       8.95106
_cell_angle_alpha    90.0529
_cell_angle_beta     89.8963
_cell_angle_gamma    91.062

_symmetry_space_group_name_H-M    'P1'
_space_group_IT_number       1

loop_
  _space_group_symop_operation_xyz
  'x, y, z'

loop_
  _atom_site_type_symbol
  _atom_site_label
  _atom_site_symmetry_multiplicity
  _atom_site_fract_x
  _atom_site_fract_y
  _atom_site_fract_z
  _atom_site_occupancy
  C   C1        1.0  0.50137  0.24573  0.37460  1.0000
  C   C2        1.0  0.49900  0.74483  0.62665  1.0000
  C   C3        1.0  0.00012  0.75254  0.87427  1.0000
  C   C4        1.0  0.00032  0.25223  0.12374  1.0000
  C   C5        1.0  0.50891  0.30544  0.26391  1.0000
  C   C6        1.0  0.99473  0.69159  0.76603  1.0000
  C   C7        1.0  0.93943  0.75710  0.98327  1.0000
  C   C8        1.0  0.00571  0.81309  0.76523  1.0000
  C   C9        1.0  0.99291  0.19138  0.23198  1.0000
  C   C10       1.0  0.49346  0.18418  0.26866  1.0000
  C   C11       1.0  0.93978  0.25851  0.01536  1.0000
  C   C12       1.0  0.55990  0.73906  0.51864  1.0000
  C   C13       1.0  0.52290  0.39254  0.01281  1.0000
  C   C14       1.0  0.98174  0.60373  0.51553  1.0000
  C   C15       1.0  0.85232  0.76922  0.23533  1.0000
  C   C16       1.0  0.01956  0.89882  0.51150  1.0000
  C   C17       1.0  0.97782  0.10420  0.48317  1.0000
  C   C18       1.0  0.47680  0.09781  0.01668  1.0000
  C   C19       1.0  0.85244  0.27246  0.76511  1.0000
  C   C20       1.0  0.64750  0.72618  0.26771  1.0000
  C   C21       1.0  0.57824  0.38141  0.10943  1.0000
  C   C22       1.0  0.92718  0.61216  0.61613  1.0000
  C   C23       1.0  0.86225  0.82388  0.13506  1.0000
  C   C24       1.0  0.07440  0.88982  0.61064  1.0000
  C   C25       1.0  0.92321  0.11453  0.38415  1.0000
  C   C26       1.0  0.42190  0.11022  0.11431  1.0000
  C   C27       1.0  0.86504  0.32746  0.86324  1.0000
  C   C28       1.0  0.63606  0.67122  0.36663  1.0000
  H   H1        1.0  0.62740  0.40527  0.08207  1.0000
  H   H2        1.0  0.87884  0.58596  0.59209  1.0000
  H   H3        1.0  0.83777  0.87211  0.15976  1.0000
  H   H4        1.0  0.12325  0.91466  0.58456  1.0000
  H   H5        1.0  0.87407  0.09024  0.40993  1.0000
  H   H6        1.0  0.37193  0.08821  0.08690  1.0000
  H   H7        1.0  0.84247  0.37648  0.83718  1.0000
  H   H8        1.0  0.65934  0.62246  0.34087  1.0000
  C   C29       1.0  0.57136  0.33859  0.23340  1.0000
  C   C30       1.0  0.93356  0.65546  0.73958  1.0000
  C   C31       1.0  0.90502  0.81792  0.01080  1.0000
  C   C32       1.0  0.06750  0.84780  0.73594  1.0000
  C   C33       1.0  0.93059  0.15745  0.26034  1.0000
  C   C34       1.0  0.43014  0.15260  0.23871  1.0000
  C   C35       1.0  0.90798  0.32061  0.98648  1.0000
  C   C36       1.0  0.59301  0.67754  0.49040  1.0000
  H   H9        1.0  0.61578  0.32877  0.30248  1.0000
  H   H10       1.0  0.88958  0.66348  0.81149  1.0000
  H   H11       1.0  0.91415  0.86207  0.93931  1.0000
  H   H12       1.0  0.11152  0.83954  0.80719  1.0000
  H   H13       1.0  0.88657  0.16648  0.18954  1.0000
  H   H14       1.0  0.38604  0.16378  0.30817  1.0000
  H   H15       1.0  0.91928  0.36498  0.05597  1.0000
  H   H16       1.0  0.58286  0.63321  0.56084  1.0000
  C   C37       1.0  0.45923  0.36092  0.04709  1.0000
  C   C38       1.0  0.04450  0.63784  0.54664  1.0000
  C   C39       1.0  0.88505  0.70697  0.20373  1.0000
  C   C40       1.0  0.95634  0.86605  0.54509  1.0000
  C   C41       1.0  0.04155  0.13608  0.45036  1.0000
  C   C42       1.0  0.54152  0.12702  0.05161  1.0000
  C   C43       1.0  0.88231  0.20898  0.79812  1.0000
  C   C44       1.0  0.61657  0.78919  0.30092  1.0000
  H   H17       1.0  0.41593  0.36509  0.97162  1.0000
  H   H18       1.0  0.08721  0.63535  0.46882  1.0000
  H   H19       1.0  0.88169  0.66435  0.28156  1.0000
  H   H20       1.0  0.91361  0.86878  0.46774  1.0000
  H   H21       1.0  0.08438  0.13227  0.52719  1.0000
  H   H22       1.0  0.58461  0.12165  0.97560  1.0000
  H   H23       1.0  0.87677  0.16597  0.72159  1.0000
  H   H24       1.0  0.62135  0.83230  0.22459  1.0000
  C   C45       1.0  0.45296  0.31848  0.17017  1.0000
  C   C46       1.0  0.05038  0.68064  0.66934  1.0000
  C   C47       1.0  0.92740  0.70148  0.08033  1.0000
  C   C48       1.0  0.94999  0.82433  0.66941  1.0000
  C   C49       1.0  0.04840  0.17840  0.32720  1.0000
  C   C50       1.0  0.54915  0.16911  0.17516  1.0000
  C   C51       1.0  0.92486  0.20268  0.92064  1.0000
  C   C52       1.0  0.57390  0.79497  0.42364  1.0000
  H   H25       1.0  0.40465  0.29160  0.19014  1.0000
  H   H26       1.0  0.09770  0.70978  0.68598  1.0000
  H   H27       1.0  0.95547  0.65455  0.06375  1.0000
  H   H28       1.0  0.90223  0.79609  0.68772  1.0000
  H   H29       1.0  0.09665  0.20567  0.30900  1.0000
  H   H30       1.0  0.59817  0.19475  0.19466  1.0000
  H   H31       1.0  0.95074  0.15463  0.93814  1.0000
  H   H32       1.0  0.54712  0.84254  0.44152  1.0000
  C   C53       1.0  0.43569  0.49980  0.57448  1.0000
  C   C54       1.0  0.56240  0.49553  0.43177  1.0000
  C   C55       1.0  0.75117  0.31530  0.18411  1.0000
  C   C56       1.0  0.06208  0.00197  0.92968  1.0000
  C   C57       1.0  0.56062  0.99274  0.57234  1.0000
  C   C58       1.0  0.74789  0.18677  0.31866  1.0000
  H   H33       1.0  0.38660  0.50163  0.63199  1.0000
  H   H34       1.0  0.61159  0.49403  0.37465  1.0000
  H   H35       1.0  0.75237  0.36523  0.13026  1.0000
  H   H36       1.0  0.11189  0.00238  0.87491  1.0000
  H   H37       1.0  0.60973  0.99039  0.62927  1.0000
  H   H38       1.0  0.74682  0.13690  0.37273  1.0000
  C   C59       1.0  0.49379  0.47924  0.65519  1.0000
  C   C60       1.0  0.50416  0.51535  0.35051  1.0000
  C   C61       1.0  0.73137  0.25725  0.09939  1.0000
  C   C62       1.0  0.99172  0.98247  0.14932  1.0000
  C   C63       1.0  0.00418  0.02083  0.84615  1.0000
  C   C64       1.0  0.50269  0.01342  0.65414  1.0000
  C   C65       1.0  0.49178  0.97738  0.34919  1.0000
  C   C66       1.0  0.76748  0.24483  0.40345  1.0000
  C   C67       1.0  0.55759  0.47831  0.58150  1.0000
  C   C68       1.0  0.44051  0.51713  0.42478  1.0000
  C   C69       1.0  0.73057  0.19266  0.16930  1.0000
  C   C70       1.0  0.05624  0.98349  0.07850  1.0000
  C   C71       1.0  0.93966  0.02001  0.91703  1.0000
  C   C72       1.0  0.43898  0.01569  0.58067  1.0000
  C   C73       1.0  0.55551  0.97552  0.42257  1.0000
  C   C74       1.0  0.76853  0.30942  0.33345  1.0000
  H   H39       1.0  0.60212  0.46257  0.64463  1.0000
  H   H40       1.0  0.39603  0.53324  0.36201  1.0000
  H   H41       1.0  0.71521  0.14825  0.10330  1.0000
  H   H42       1.0  0.10054  0.96829  0.14307  1.0000
  H   H43       1.0  0.89541  0.03538  0.85257  1.0000
  H   H44       1.0  0.39466  0.03213  0.64407  1.0000
  H   H45       1.0  0.59982  0.95905  0.35926  1.0000
  H   H46       1.0  0.78408  0.35376  0.39953  1.0000
  C   C75       1.0  0.48545  0.45421  0.80677  1.0000
  C   C76       1.0  0.51250  0.53852  0.19753  1.0000
  C   C77       1.0  0.01875  0.54527  0.30392  1.0000
  C   C78       1.0  0.98658  0.45783  0.69776  1.0000
  C   C79       1.0  0.29307  0.73321  0.05248  1.0000
  C   C80       1.0  0.70728  0.26616  0.94760  1.0000
  C   C81       1.0  0.20801  0.26981  0.55116  1.0000
  C   C82       1.0  0.79368  0.73161  0.44825  1.0000
  C   C83       1.0  0.98257  0.95781  0.30100  1.0000
  C   C84       1.0  0.01378  0.04547  0.69468  1.0000
  C   C85       1.0  0.51180  0.03700  0.80665  1.0000
  C   C86       1.0  0.48316  0.95298  0.19701  1.0000
  C   C87       1.0  0.79144  0.23567  0.55527  1.0000
  C   C88       1.0  0.20505  0.77090  0.44912  1.0000
  C   C89       1.0  0.70615  0.76367  0.05459  1.0000
  C   C90       1.0  0.29255  0.23728  0.94365  1.0000
  H   H47       1.0  0.43337  0.45603  0.85268  1.0000
  H   H48       1.0  0.56452  0.53528  0.15177  1.0000
  H   H49       1.0  0.07173  0.54628  0.34455  1.0000
  H   H50       1.0  0.93395  0.45870  0.65541  1.0000
  H   H51       1.0  0.29307  0.67959  0.08886  1.0000
  H   H52       1.0  0.70966  0.31878  0.90490  1.0000
  H   H53       1.0  0.21095  0.32240  0.59419  1.0000
  H   H54       1.0  0.79463  0.67837  0.40915  1.0000
  H   H55       1.0  0.93003  0.95881  0.34453  1.0000
  H   H56       1.0  0.06675  0.04529  0.65346  1.0000
  H   H57       1.0  0.56392  0.03337  0.85119  1.0000
  H   H58       1.0  0.43110  0.95524  0.15157  1.0000
  H   H59       1.0  0.78870  0.18314  0.59840  1.0000
  H   H60       1.0  0.20511  0.82427  0.41081  1.0000
  H   H61       1.0  0.70598  0.81682  0.09448  1.0000
  H   H62       1.0  0.28781  0.18473  0.90090  1.0000
  N   N1        1.0  0.53569  0.42816  0.88021  1.0000
  N   N2        1.0  0.46262  0.56437  0.12239  1.0000
  N   N3        1.0  0.96851  0.56817  0.38299  1.0000
  N   N4        1.0  0.03652  0.43365  0.61962  1.0000
  N   N5        1.0  0.31674  0.78246  0.13573  1.0000
  N   N6        1.0  0.68161  0.21574  0.87073  1.0000
  N   N7        1.0  0.18155  0.21983  0.62819  1.0000
  N   N8        1.0  0.81670  0.78207  0.36769  1.0000
  N   N9        1.0  0.03270  0.93362  0.37798  1.0000
  N   N10       1.0  0.96392  0.06909  0.61602  1.0000
  N   N11       1.0  0.46255  0.06361  0.88291  1.0000
  N   N12       1.0  0.53316  0.92717  0.12177  1.0000
  N   N13       1.0  0.81752  0.28576  0.63256  1.0000
  N   N14       1.0  0.18156  0.72095  0.36764  1.0000
  N   N15       1.0  0.68276  0.71326  0.13484  1.0000
  N   N16       1.0  0.32011  0.28631  0.86559  1.0000
  C   C91       1.0  0.43391  0.99840  0.43086  1.0000
  H   H63       1.0  0.38482  0.00081  0.37399  1.0000
  C   C92       1.0  0.93380  0.00145  0.06592  1.0000
  H   H64       1.0  0.88397  0.00104  0.12062  1.0000
  C   C93       1.0  0.25157  0.82583  0.72578  1.0000
  C   C94       1.0  0.23732  0.77575  0.61821  1.0000
  C  Sn1       1.0  0.23589  0.70661  0.65757  1.0000
  C  Sn2       1.0  0.24897  0.68742  0.80750  1.0000
  C   C95       1.0  0.26312  0.73791  0.91432  1.0000
  C   C96       1.0  0.26445  0.80694  0.87370  1.0000
  H   H65       1.0  0.25256  0.87925  0.69439  1.0000
  O  Te1       1.0  0.22160  0.65724  0.54868  1.0000
  O  Te2       1.0  0.24784  0.61869  0.84990  1.0000
  H   H66       1.0  0.27543  0.84571  0.95704  1.0000
  Mg  Mg1       1.0  0.22589  0.57024  0.66116  1.0000
  C   C97       1.0  0.39138  0.19487  0.67489  1.0000
  C   C98       1.0  0.36225  0.25443  0.73073  1.0000
  C  Sn3       1.0  0.36934  0.31598  0.65262  1.0000
  C  Sn4       1.0  0.40630  0.31779  0.51607  1.0000
  C   C99       1.0  0.43522  0.25792  0.46110  1.0000
  C   C100      1.0  0.42782  0.19660  0.54020  1.0000
  H   H67       1.0  0.38563  0.14742  0.73604  1.0000
  O  Te3       1.0  0.33993  0.37501  0.71002  1.0000
  O  Te4       1.0  0.41415  0.37861  0.43570  1.0000
  H   H68       1.0  0.45035  0.15049  0.49689  1.0000
  Mg  Mg2       1.0  0.36469  0.44555  0.55970  1.0000
  C   C101      1.0  0.07253  0.48921  0.94975  1.0000
  C   C102      1.0  0.01285  0.47944  0.86612  1.0000
  C  Sn5       1.0  0.94916  0.49386  0.92847  1.0000
  C  Sn6       1.0  0.94612  0.51812  0.07732  1.0000
  C   C103      1.0  0.00613  0.52776  0.16002  1.0000
  C   C104      1.0  0.06960  0.51315  0.09655  1.0000
  H   H69       1.0  0.12164  0.47794  0.90063  1.0000
  O  Te5       1.0  0.89003  0.48380  0.84338  1.0000
  O  Te6       1.0  0.88313  0.53296  0.14237  1.0000
  H   H70       1.0  0.11580  0.52076  0.16129  1.0000
  Mg  Mg3       1.0  0.81615  0.51131  0.98140  1.0000
  C   C105      1.0  0.39499  0.69362  0.31796  1.0000
  C   C106      1.0  0.35504  0.74906  0.27704  1.0000
  C  Sn7       1.0  0.35827  0.80982  0.35919  1.0000
  C  Sn8       1.0  0.40238  0.81502  0.48454  1.0000
  C   C107      1.0  0.44218  0.75928  0.52450  1.0000
  C   C108      1.0  0.43853  0.69871  0.44155  1.0000
  H   H71       1.0  0.39221  0.64676  0.25373  1.0000
  O  Te7       1.0  0.31798  0.86471  0.31680  1.0000
  O  Te8       1.0  0.40662  0.87515  0.56858  1.0000
  H   H72       1.0  0.46951  0.65581  0.47320  1.0000
  Mg  Mg4       1.0  0.34162  0.93588  0.46660  1.0000
  C   C109      1.0  0.24182  0.18124  0.21498  1.0000
  C   C110      1.0  0.26052  0.23211  0.11241  1.0000
  C  Sn9       1.0  0.26838  0.30002  0.15891  1.0000
  C  Sn10      1.0  0.25729  0.31716  0.31099  1.0000
  C   C111      1.0  0.23865  0.26589  0.41275  1.0000
  C   C112      1.0  0.23090  0.19810  0.36501  1.0000
  H   H73       1.0  0.23586  0.12878  0.17807  1.0000
  O  Te9       1.0  0.28706  0.35021  0.05496  1.0000
  O  Te10      1.0  0.26482  0.38463  0.36049  1.0000
  H   H74       1.0  0.21647  0.15871  0.44446  1.0000
  Mg  Mg5       1.0  0.29095  0.43489  0.17650  1.0000
  C   C113      1.0  0.10483  0.80855  0.17868  1.0000
  C   C114      1.0  0.13747  0.75077  0.23343  1.0000
  C  Sn11      1.0  0.13523  0.68953  0.15290  1.0000
  C  Sn12      1.0  0.09964  0.68624  0.01501  1.0000
  C   C115      1.0  0.06637  0.74475  0.96114  1.0000
  C   C116      1.0  0.06974  0.80536  0.04266  1.0000
  H   H75       1.0  0.10683  0.85577  0.24170  1.0000
  O  Te11      1.0  0.16810  0.63227  0.20925  1.0000
  O  Te12      1.0  0.09579  0.62610  0.93222  1.0000
  H   H76       1.0  0.04450  0.85010  0.00019  1.0000
  Mg  Mg6       1.0  0.14945  0.56143  0.05559  1.0000
  C   C117      1.0  0.10114  0.17224  0.95665  1.0000
  C   C118      1.0  0.07177  0.23017  0.01578  1.0000
  C  Sn13      1.0  0.07681  0.29308  0.94091  1.0000
  C  Sn14      1.0  0.11360  0.29709  0.80432  1.0000
  C   C119      1.0  0.14358  0.23841  0.74605  1.0000
  C   C120      1.0  0.13741  0.17613  0.82191  1.0000
  H   H77       1.0  0.09716  0.12363  0.01530  1.0000
  O  Te13      1.0  0.04717  0.35048  0.00158  1.0000
  O  Te14      1.0  0.12022  0.35890  0.72716  1.0000
  H   H78       1.0  0.16076  0.13096  0.77606  1.0000
  Mg  Mg7       1.0  0.06964  0.42348  0.85492  1.0000
  C   C121      1.0  0.94415  0.33420  0.36098  1.0000
  C   C122      1.0  0.99129  0.32009  0.24804  1.0000
  C  Sn15      1.0  0.05851  0.34517  0.25784  1.0000
  C  Sn16      1.0  0.07877  0.38508  0.38317  1.0000
  C   C123      1.0  0.03124  0.39888  0.49561  1.0000
  C   C124      1.0  0.96410  0.37354  0.48466  1.0000
  H   H79       1.0  0.89221  0.31457  0.35256  1.0000
  O  Te15      1.0  0.10495  0.33061  0.14399  1.0000
  O  Te16      1.0  0.14564  0.41076  0.39580  1.0000
  H   H80       1.0  0.92762  0.38444  0.57216  1.0000
  Mg  Mg8       1.0  0.19026  0.37708  0.21184  1.0000
  C   C125      1.0  0.55205  0.63820  0.92658  1.0000
  C   C126      1.0  0.49286  0.60728  0.98526  1.0000
  C  Sn17      1.0  0.43083  0.61133  0.90881  1.0000
  C  Sn18      1.0  0.42817  0.64702  0.77107  1.0000
  C   C127      1.0  0.48767  0.67774  0.71325  1.0000
  C   C128      1.0  0.54947  0.67339  0.79069  1.0000
  H   H81       1.0  0.59987  0.63480  0.98644  1.0000
  O  Te17      1.0  0.37218  0.58017  0.96906  1.0000
  O  Te18      1.0  0.36685  0.65184  0.69232  1.0000
  H   H82       1.0  0.59529  0.69729  0.74518  1.0000
  Mg  Mg9       1.0  0.30072  0.60091  0.82009  1.0000
  C   C129      1.0  0.60972  0.30305  0.67215  1.0000
  C   C130      1.0  0.63944  0.24493  0.73302  1.0000
  C  Sn19      1.0  0.63307  0.18188  0.66032  1.0000
  C  Sn20      1.0  0.59624  0.17709  0.52416  1.0000
  C   C131      1.0  0.56673  0.23554  0.46413  1.0000
  C   C132      1.0  0.57341  0.29838  0.53783  1.0000
  H   H83       1.0  0.61492  0.35167  0.72912  1.0000
  O  Te19      1.0  0.66306  0.12431  0.72271  1.0000
  O  Te20      1.0  0.58910  0.11472  0.44915  1.0000
  H   H84       1.0  0.55043  0.34337  0.49062  1.0000
  Mg  Mg10      1.0  0.63917  0.05074  0.57871  1.0000
  C   C133      1.0  0.44248  0.82455  0.86688  1.0000
  C   C134      1.0  0.48942  0.81151  0.75292  1.0000
  C  Sn21      1.0  0.55597  0.83856  0.76066  1.0000
  C  Sn22      1.0  0.57573  0.87939  0.88497  1.0000
  C   C135      1.0  0.52840  0.89210  0.99846  1.0000
  C   C136      1.0  0.46194  0.86479  0.98956  1.0000
  H   H85       1.0  0.39106  0.80339  0.86005  1.0000
  O  Te21      1.0  0.60222  0.82506  0.64580  1.0000
  O  Te22      1.0  0.64192  0.90705  0.89556  1.0000
  H   H86       1.0  0.42643  0.87445  0.07786  1.0000
  Mg  Mg11      1.0  0.68654  0.87418  0.71088  1.0000
  C   C137      1.0  0.74831  0.67444  0.72338  1.0000
  C   C138      1.0  0.76126  0.72545  0.61724  1.0000
  C  Sn23      1.0  0.76149  0.79432  0.65898  1.0000
  C  Sn24      1.0  0.74853  0.81230  0.80986  1.0000
  C   C139      1.0  0.73568  0.76089  0.91523  1.0000
  C   C140      1.0  0.73554  0.69213  0.87224  1.0000
  H   H87       1.0  0.74824  0.62124  0.69015  1.0000
  O  Te23      1.0  0.77450  0.84463  0.55150  1.0000
  O  Te24      1.0  0.74849  0.88073  0.85463  1.0000
  H   H88       1.0  0.72556  0.65265  0.95446  1.0000
  Mg  Mg12      1.0  0.76891  0.93077  0.66711  1.0000
