data_image0
_chemical_formula_structural       C16H16N16C7H7C21H7C7H7C7H7C22H10C10H10C4Sn2C2HTe2HMgC2Sn2C2HTe2HMgC2Sn2C2HTe2HMgC2Sn2C2HTe2HMgC2Sn2C2HTe2HMgC2Sn2C2HTe2HMgC2Sn2C2HTe2HMgC2Sn2C2HTe2HMgC2Sn2C2HTe2HMgC2Sn2C2HTe2HMgC2Sn2C2HTe2HMgC2Sn2C2HTe2HMg
_chemical_formula_sum              "C140 H88 N16 Sn24 Te24 Mg12"
_cell_length_a       25.7451
_cell_length_b       25.8218
_cell_length_c       7.77158
_cell_angle_alpha    89.6407
_cell_angle_beta     89.7388
_cell_angle_gamma    90.2575

_symmetry_space_group_name_H-M    'P1'
_space_group_IT_number       1

loop_
  _space_group_symop_operation_xyz
  'x, y, z'

loop_
  _atom_site_type_symbol
  _atom_site_label
  _atom_site_symmetry_multiplicity
  _atom_site_fract_x
  _atom_site_fract_y
  _atom_site_fract_z
  _atom_site_occupancy
  C   C1        1.0  0.51680  0.58482  0.62557  1.0000
  C   C2        1.0  0.48263  0.41363  0.36432  1.0000
  C   C3        1.0  0.98485  0.41614  0.12456  1.0000
  C   C4        1.0  0.02094  0.58186  0.86978  1.0000
  C   C5        1.0  0.16549  0.77280  0.87389  1.0000
  C   C6        1.0  0.83506  0.23232  0.11848  1.0000
  C   C7        1.0  0.33623  0.23073  0.38354  1.0000
  C   C8        1.0  0.66319  0.77106  0.61761  1.0000
  C   C9        1.0  0.02039  0.08334  0.12795  1.0000
  C   C10       1.0  0.98074  0.91488  0.87427  1.0000
  C   C11       1.0  0.48052  0.91603  0.63436  1.0000
  C   C12       1.0  0.51996  0.08265  0.37309  1.0000
  C   C13       1.0  0.66964  0.26788  0.37254  1.0000
  C   C14       1.0  0.32894  0.73778  0.62683  1.0000
  C   C15       1.0  0.83252  0.72810  0.87894  1.0000
  C   C16       1.0  0.16677  0.27067  0.12206  1.0000
  H   H1        1.0  0.54900  0.55772  0.60258  1.0000
  H   H2        1.0  0.45051  0.44103  0.38393  1.0000
  H   H3        1.0  0.95219  0.44301  0.10648  1.0000
  H   H4        1.0  0.05353  0.55486  0.88770  1.0000
  H   H5        1.0  0.19217  0.80581  0.85419  1.0000
  H   H6        1.0  0.80824  0.19924  0.13362  1.0000
  H   H7        1.0  0.30835  0.19874  0.36611  1.0000
  H   H8        1.0  0.69148  0.80266  0.63578  1.0000
  H   H9        1.0  0.05279  0.05628  0.10830  1.0000
  H   H10       1.0  0.94873  0.94244  0.89361  1.0000
  H   H11       1.0  0.44897  0.94424  0.61682  1.0000
  H   H12       1.0  0.55226  0.05539  0.39207  1.0000
  H   H13       1.0  0.69545  0.30178  0.35760  1.0000
  H   H14       1.0  0.30163  0.70512  0.64280  1.0000
  H   H15       1.0  0.80443  0.69629  0.86119  1.0000
  H   H16       1.0  0.19375  0.30348  0.13850  1.0000
  N   N1        1.0  0.48779  0.58124  0.76121  1.0000
  N   N2        1.0  0.51234  0.41636  0.22995  1.0000
  N   N3        1.0  0.01551  0.41947  0.25531  1.0000
  N   N4        1.0  0.99090  0.57924  0.73723  1.0000
  N   N5        1.0  0.16819  0.74330  0.00843  1.0000
  N   N6        1.0  0.83242  0.26342  0.98779  1.0000
  N   N7        1.0  0.33402  0.26067  0.51615  1.0000
  N   N8        1.0  0.66499  0.74150  0.48405  1.0000
  N   N9        1.0  0.99049  0.08029  0.26166  1.0000
  N   N10       1.0  0.01085  0.91751  0.74089  1.0000
  N   N11       1.0  0.51052  0.91738  0.76729  1.0000
  N   N12       1.0  0.48982  0.07978  0.24096  1.0000
  N   N13       1.0  0.67370  0.23643  0.50177  1.0000
  N   N14       1.0  0.32653  0.76883  0.49598  1.0000
  N   N15       1.0  0.82993  0.75866  0.00975  1.0000
  N   N16       1.0  0.17011  0.23988  0.99205  1.0000
  C   C17       1.0  0.95107  0.36972  0.87150  1.0000
  C   C18       1.0  0.11720  0.80361  0.61828  1.0000
  C   C19       1.0  0.38273  0.19763  0.12716  1.0000
  C   C20       1.0  0.05172  0.12994  0.86806  1.0000
  C   C21       1.0  0.94757  0.86677  0.12990  1.0000
  C   C22       1.0  0.55293  0.12925  0.62730  1.0000
  C   C23       1.0  0.37591  0.70320  0.87984  1.0000
  H   H17       1.0  0.91813  0.39601  0.87113  1.0000
  H   H18       1.0  0.14111  0.83852  0.61725  1.0000
  H   H19       1.0  0.35693  0.16410  0.12791  1.0000
  H   H20       1.0  0.08491  0.10402  0.86387  1.0000
  H   H21       1.0  0.91400  0.89226  0.13278  1.0000
  H   H22       1.0  0.58638  0.10361  0.62763  1.0000
  H   H23       1.0  0.34974  0.66996  0.88015  1.0000
  C   C24       1.0  0.98996  0.37562  0.99570  1.0000
  C   C25       1.0  0.12553  0.76533  0.74367  1.0000
  C   C26       1.0  0.37659  0.23618  0.25201  1.0000
  C   C27       1.0  0.01405  0.12365  0.99743  1.0000
  C   C28       1.0  0.98602  0.87395  0.00336  1.0000
  C   C29       1.0  0.51428  0.12292  0.50258  1.0000
  C   C30       1.0  0.36955  0.74244  0.75631  1.0000
  C   C31       1.0  0.99565  0.29604  0.74850  1.0000
  C   C32       1.0  0.04682  0.75334  0.49438  1.0000
  C   C33       1.0  0.45579  0.24397  0.99943  1.0000
  C   C34       1.0  0.00476  0.20265  0.74671  1.0000
  C   C35       1.0  0.99423  0.79359  0.25027  1.0000
  C   C36       1.0  0.50674  0.20176  0.75241  1.0000
  C   C37       1.0  0.44956  0.74854  0.00335  1.0000
  C   C38       1.0  0.95373  0.33023  0.74989  1.0000
  C   C39       1.0  0.07808  0.79781  0.49591  1.0000
  C   C40       1.0  0.42209  0.20134  0.00327  1.0000
  C   C41       1.0  0.04729  0.16920  0.74473  1.0000
  C   C42       1.0  0.95152  0.82683  0.25136  1.0000
  C   C43       1.0  0.54937  0.16837  0.75007  1.0000
  C   C44       1.0  0.41566  0.70607  0.00124  1.0000
  H   H24       1.0  0.92262  0.32597  0.65707  1.0000
  H   H25       1.0  0.07181  0.82860  0.40256  1.0000
  H   H26       1.0  0.42666  0.17047  0.91015  1.0000
  H   H27       1.0  0.07740  0.17389  0.64743  1.0000
  H   H28       1.0  0.92091  0.82153  0.34669  1.0000
  H   H29       1.0  0.58027  0.17283  0.84362  1.0000
  H   H30       1.0  0.42034  0.67462  0.09327  1.0000
  C   C45       1.0  0.03442  0.30169  0.87490  1.0000
  C   C46       1.0  0.05525  0.71496  0.62118  1.0000
  C   C47       1.0  0.44958  0.28265  0.12540  1.0000
  C   C48       1.0  0.96682  0.19616  0.87672  1.0000
  C   C49       1.0  0.03283  0.80090  0.12274  1.0000
  C   C50       1.0  0.46787  0.19523  0.62672  1.0000
  C   C51       1.0  0.44307  0.78797  0.87869  1.0000
  H   H31       1.0  0.06623  0.27414  0.87987  1.0000
  H   H32       1.0  0.03010  0.68099  0.62627  1.0000
  H   H33       1.0  0.47647  0.31530  0.12804  1.0000
  H   H34       1.0  0.93431  0.22291  0.88299  1.0000
  H   H35       1.0  0.06582  0.77471  0.11747  1.0000
  H   H36       1.0  0.43516  0.22176  0.62315  1.0000
  H   H37       1.0  0.47002  0.82057  0.87481  1.0000
  C   C52       1.0  0.03189  0.34073  0.99614  1.0000
  C   C53       1.0  0.09383  0.72070  0.74361  1.0000
  C   C54       1.0  0.41080  0.27894  0.24936  1.0000
  C   C55       1.0  0.97122  0.15743  0.99994  1.0000
  C   C56       1.0  0.02886  0.84017  0.00130  1.0000
  C   C57       1.0  0.47141  0.15664  0.50399  1.0000
  C   C58       1.0  0.40383  0.78511  0.75745  1.0000
  H   H38       1.0  0.06155  0.34425  0.09458  1.0000
  H   H39       1.0  0.09955  0.69152  0.84325  1.0000
  H   H40       1.0  0.40679  0.30835  0.34806  1.0000
  H   H41       1.0  0.94241  0.15318  0.10181  1.0000
  H   H42       1.0  0.05818  0.84505  0.90127  1.0000
  H   H43       1.0  0.44183  0.15257  0.40547  1.0000
  H   H44       1.0  0.39952  0.81495  0.65931  1.0000
  C   C59       1.0  0.49664  0.75241  0.12486  1.0000
  C   C60       1.0  0.50242  0.24859  0.87437  1.0000
  C   C61       1.0  0.99980  0.24971  0.62509  1.0000
  C   C62       1.0  0.99982  0.74685  0.37353  1.0000
  C   C63       1.0  0.49457  0.53949  0.87469  1.0000
  C   C64       1.0  0.50634  0.45792  0.11524  1.0000
  C   C65       1.0  0.00927  0.46015  0.37179  1.0000
  C   C66       1.0  0.99713  0.53882  0.61990  1.0000
  C   C67       1.0  0.20835  0.75036  0.12663  1.0000
  C   C68       1.0  0.79212  0.25707  0.86941  1.0000
  C   C69       1.0  0.99615  0.03911  0.37786  1.0000
  C   C70       1.0  0.00580  0.95878  0.62460  1.0000
  C   C71       1.0  0.71404  0.24340  0.61952  1.0000
  C   C72       1.0  0.28617  0.76312  0.37763  1.0000
  C   C73       1.0  0.50319  0.48833  0.81885  1.0000
  C   C74       1.0  0.49797  0.50909  0.17100  1.0000
  C   C75       1.0  0.99839  0.51147  0.32094  1.0000
  C   C76       1.0  0.26011  0.76106  0.07756  1.0000
  C   C77       1.0  0.74077  0.24459  0.91895  1.0000
  C   C78       1.0  0.99715  0.01029  0.67645  1.0000
  C   C79       1.0  0.76533  0.25604  0.56993  1.0000
  C   C80       1.0  0.23438  0.75253  0.42670  1.0000
  H   H45       1.0  0.50408  0.48016  0.68140  1.0000
  H   H46       1.0  0.49748  0.51706  0.30856  1.0000
  H   H47       1.0  0.99606  0.52094  0.18437  1.0000
  H   H48       1.0  0.01049  0.47796  0.80711  1.0000
  H   H49       1.0  0.27024  0.76289  0.94137  1.0000
  H   H50       1.0  0.73097  0.24161  0.05520  1.0000
  H   H51       1.0  0.00638  0.97859  0.18923  1.0000
  H   H52       1.0  0.99520  0.01916  0.81329  1.0000
  H   H53       1.0  0.77518  0.25922  0.43374  1.0000
  H   H54       1.0  0.22434  0.75038  0.56295  1.0000
  C   C81       1.0  0.49152  0.54909  0.05275  1.0000
  C   C82       1.0  0.50963  0.44830  0.93726  1.0000
  C   C83       1.0  0.01473  0.44898  0.54846  1.0000
  C   C84       1.0  0.99169  0.55000  0.44314  1.0000
  C   C85       1.0  0.19623  0.74557  0.30301  1.0000
  C   C86       1.0  0.80359  0.26348  0.69312  1.0000
  C   C87       1.0  0.99177  0.04965  0.55506  1.0000
  C   C88       1.0  0.01018  0.94825  0.44740  1.0000
  C   C89       1.0  0.70253  0.23710  0.79588  1.0000
  C   C90       1.0  0.29830  0.76799  0.20123  1.0000
  H   H55       1.0  0.48616  0.58871  0.09588  1.0000
  H   H56       1.0  0.51524  0.40871  0.89431  1.0000
  H   H57       1.0  0.02214  0.40917  0.58719  1.0000
  H   H58       1.0  0.98437  0.58976  0.40373  1.0000
  H   H59       1.0  0.15606  0.73842  0.34022  1.0000
  H   H60       1.0  0.84339  0.27212  0.65475  1.0000
  H   H61       1.0  0.98584  0.08948  0.59501  1.0000
  H   H62       1.0  0.01550  0.90837  0.40708  1.0000
  H   H63       1.0  0.66269  0.22853  0.83378  1.0000
  H   H64       1.0  0.33850  0.77486  0.16372  1.0000
  C   C91       1.0  0.00807  0.48748  0.67059  1.0000
  C   C92       1.0  0.00490  0.98762  0.32598  1.0000
  C   C93       1.0  0.44348  0.35871  0.65626  1.0000
  C   C94       1.0  0.47936  0.37456  0.53093  1.0000
  C  Sn1       1.0  0.52577  0.34750  0.50879  1.0000
  C  Sn2       1.0  0.53633  0.30378  0.61424  1.0000
  C   C95       1.0  0.50016  0.28822  0.73918  1.0000
  C   C96       1.0  0.45386  0.31559  0.76028  1.0000
  H   H65       1.0  0.40764  0.37986  0.67254  1.0000
  O  Te1       1.0  0.56120  0.36387  0.38300  1.0000
  O  Te2       1.0  0.58239  0.27603  0.59481  1.0000
  H   H66       1.0  0.42607  0.30329  0.85726  1.0000
  Mg  Mg1       1.0  0.61854  0.31342  0.40567  1.0000
  C   C97       1.0  0.58929  0.80664  0.98304  1.0000
  C   C98       1.0  0.54927  0.77010  0.99721  1.0000
  C  Sn3       1.0  0.54741  0.72795  0.88554  1.0000
  C  Sn4       1.0  0.58641  0.72237  0.75748  1.0000
  C   C99       1.0  0.62631  0.75912  0.74445  1.0000
  C   C100      1.0  0.62778  0.80116  0.85682  1.0000
  H   H67       1.0  0.59183  0.84105  0.07004  1.0000
  O  Te3       1.0  0.50715  0.69181  0.90143  1.0000
  O  Te4       1.0  0.58551  0.68060  0.64424  1.0000
  H   H68       1.0  0.65879  0.82943  0.84589  1.0000
  Mg  Mg2       1.0  0.52271  0.64153  0.71698  1.0000
  C   C101      1.0  0.45992  0.67077  0.48239  1.0000
  C   C102      1.0  0.49731  0.63191  0.49611  1.0000
  C  Sn5       1.0  0.53992  0.63139  0.38418  1.0000
  C  Sn6       1.0  0.54510  0.67056  0.25631  1.0000
  C   C103      1.0  0.50751  0.70928  0.24372  1.0000
  C   C104      1.0  0.46501  0.70943  0.35635  1.0000
  H   H69       1.0  0.42706  0.67090  0.56959  1.0000
  O  Te5       1.0  0.57691  0.59227  0.39962  1.0000
  O  Te6       1.0  0.58732  0.67097  0.14281  1.0000
  H   H70       1.0  0.43609  0.73954  0.34577  1.0000
  Mg  Mg3       1.0  0.62752  0.60942  0.21495  1.0000
  C   C105      1.0  0.88747  0.19303  0.41317  1.0000
  C   C106      1.0  0.87319  0.22871  0.28617  1.0000
  C  Sn7       1.0  0.90212  0.27407  0.26125  1.0000
  C  Sn8       1.0  0.94614  0.28378  0.36557  1.0000
  C   C107      1.0  0.96012  0.24783  0.49220  1.0000
  C   C108      1.0  0.93089  0.20257  0.51608  1.0000
  H   H71       1.0  0.86487  0.15800  0.43160  1.0000
  O  Te7       1.0  0.88730  0.30931  0.13382  1.0000
  O  Te8       1.0  0.97575  0.32879  0.34336  1.0000
  H   H72       1.0  0.94198  0.17494  0.61435  1.0000
  Mg  Mg4       1.0  0.94000  0.36508  0.15282  1.0000
  C   C109      1.0  0.49367  0.04554  0.90267  1.0000
  C   C110      1.0  0.49222  0.04387  0.08198  1.0000
  C  Sn9       1.0  0.50368  0.99620  0.16454  1.0000
  C  Sn10      1.0  0.51366  0.95134  0.06542  1.0000
  C   C111      1.0  0.51507  0.95343  0.88612  1.0000
  C   C112      1.0  0.50353  0.00132  0.80482  1.0000
  H   H73       1.0  0.48825  0.08260  0.83976  1.0000
  O  Te9       1.0  0.50071  0.99332  0.34379  1.0000
  O  Te10      1.0  0.52078  0.90322  0.14463  1.0000
  H   H74       1.0  0.50576  0.00408  0.66600  1.0000
  Mg  Mg5       1.0  0.51311  0.91901  0.39241  1.0000
  C   C113      1.0  0.05889  0.21256  0.33182  1.0000
  C   C114      1.0  0.04864  0.24334  0.47516  1.0000
  C  Sn11      1.0  0.07760  0.28835  0.50349  1.0000
  C  Sn12      1.0  0.11753  0.30271  0.38589  1.0000
  C   C115      1.0  0.12746  0.27167  0.24281  1.0000
  C   C116      1.0  0.09825  0.22670  0.21573  1.0000
  H   H75       1.0  0.03628  0.17778  0.31080  1.0000
  O  Te11      1.0  0.06687  0.31866  0.64739  1.0000
  O  Te12      1.0  0.14705  0.34751  0.41107  1.0000
  H   H76       1.0  0.10617  0.20289  0.10467  1.0000
  Mg  Mg6       1.0  0.11774  0.37614  0.62621  1.0000
  C   C117      1.0  0.79423  0.75910  0.34832  1.0000
  C   C118      1.0  0.79223  0.75396  0.16957  1.0000
  C  Sn13      1.0  0.74458  0.74702  0.08732  1.0000
  C  Sn14      1.0  0.69814  0.74523  0.18620  1.0000
  C   C119      1.0  0.70054  0.75044  0.36494  1.0000
  C   C120      1.0  0.74843  0.75735  0.44594  1.0000
  H   H77       1.0  0.83127  0.76447  0.41099  1.0000
  O  Te13      1.0  0.74191  0.74004  0.90863  1.0000
  O  Te14      1.0  0.64999  0.73835  0.10729  1.0000
  H   H78       1.0  0.74996  0.76136  0.58432  1.0000
  Mg  Mg7       1.0  0.66691  0.73138  0.86025  1.0000
  C   C121      1.0  0.90890  0.69066  0.52083  1.0000
  C   C122      1.0  0.94418  0.73109  0.49166  1.0000
  C  Sn15      1.0  0.94557  0.77350  0.60230  1.0000
  C  Sn16      1.0  0.91096  0.77536  0.74471  1.0000
  C   C123      1.0  0.87584  0.73470  0.77285  1.0000
  C   C124      1.0  0.87476  0.69245  0.66129  1.0000
  H   H79       1.0  0.90808  0.65795  0.43458  1.0000
  O  Te15      1.0  0.98105  0.81357  0.57124  1.0000
  O  Te16      1.0  0.91154  0.81728  0.85735  1.0000
  H   H80       1.0  0.84746  0.66114  0.68398  1.0000
  Mg  Mg8       1.0  0.96696  0.86245  0.76106  1.0000
  C   C125      1.0  0.22733  0.24160  0.58876  1.0000
  C   C126      1.0  0.27932  0.25528  0.61376  1.0000
  C  Sn17      1.0  0.29867  0.26143  0.78008  1.0000
  C  Sn18      1.0  0.26528  0.25371  0.92377  1.0000
  C   C127      1.0  0.21333  0.23999  0.89740  1.0000
  C   C128      1.0  0.19436  0.23395  0.73042  1.0000
  H   H81       1.0  0.21265  0.23690  0.45957  1.0000
  O  Te17      1.0  0.35071  0.27513  0.80275  1.0000
  O  Te18      1.0  0.28500  0.26148  0.09139  1.0000
  H   H82       1.0  0.15412  0.22333  0.71110  1.0000
  Mg  Mg9       1.0  0.35890  0.28048  0.05619  1.0000
  C   C129      1.0  0.44173  0.84197  0.27597  1.0000
  C   C130      1.0  0.48235  0.80766  0.24295  1.0000
  C  Sn19      1.0  0.52568  0.80640  0.35043  1.0000
  C  Sn20      1.0  0.52828  0.84015  0.49354  1.0000
  C   C131      1.0  0.48743  0.87430  0.52554  1.0000
  C   C132      1.0  0.44425  0.87525  0.41713  1.0000
  H   H83       1.0  0.40831  0.84269  0.19216  1.0000
  O  Te19      1.0  0.56593  0.77190  0.31555  1.0000
  O  Te20      1.0  0.57113  0.83968  0.60307  1.0000
  H   H84       1.0  0.41279  0.90179  0.44280  1.0000
  Mg  Mg10      1.0  0.61619  0.78575  0.50209  1.0000
  C   C133      1.0  0.56398  0.20857  0.15777  1.0000
  C   C134      1.0  0.54872  0.24408  0.03152  1.0000
  C  Sn21      1.0  0.57720  0.28961  0.00445  1.0000
  C  Sn22      1.0  0.62178  0.29967  0.10583  1.0000
  C   C135      1.0  0.63674  0.26389  0.23172  1.0000
  C   C136      1.0  0.60795  0.21845  0.25776  1.0000
  H   H85       1.0  0.54172  0.17341  0.17787  1.0000
  O  Te21      1.0  0.56002  0.32278  0.87782  1.0000
  O  Te22      1.0  0.65096  0.34486  0.08143  1.0000
  H   H86       1.0  0.61979  0.19096  0.35544  1.0000
  Mg  Mg11      1.0  0.61247  0.37890  0.89306  1.0000
  C   C137      1.0  0.96314  0.66511  0.02127  1.0000
  C   C138      1.0  0.00298  0.62935  0.99160  1.0000
  C  Sn23      1.0  0.04698  0.63058  0.10222  1.0000
  C  Sn24      1.0  0.04825  0.66449  0.24511  1.0000
  C   C139      1.0  0.00680  0.69820  0.27375  1.0000
  C   C140      1.0  0.96435  0.69856  0.16222  1.0000
  H   H87       1.0  0.92890  0.66348  0.93505  1.0000
  O  Te23      1.0  0.08784  0.59650  0.07066  1.0000
  O  Te24      1.0  0.09036  0.66461  0.35773  1.0000
  H   H88       1.0  0.93242  0.72476  0.18529  1.0000
  Mg  Mg12      1.0  0.13669  0.61110  0.26066  1.0000
