data_image0
_chemical_formula_structural       Si6C4H2C2H2C4H2C2H2C6H6N6C8H4C4H4C8H4C4H4C4H2C2H2C4H2C2H2C6H6N6C6H3C3H3C6H3C3H3C8H4C4H4C8H4C4H4C6H6N6C6H3C3H3C6H3C3H3C8H4C4H4C8H4C4H4C6H6N6C4H2C2H2C4H2C2H2C6SnCSn2CSnTe4Mg2SnCSn2CSnTe4Mg2SnCSn2CSnTe4Mg2SnCSn2CSnTe4Mg2SnCSn2CSnTe4Mg2SnCSn2CSnTe4Mg2SnCSn2CSnTe4Mg2SnCSn2CSnTe4Mg2SnCSn2CSnTe4Mg2SnCSn2CSnTe4Mg2SnCSn2CSnTe4Mg2SnCSn2CSnTe4Mg2SnCSn2CSnTe4Mg2SnCSn2CSnTe4Mg2SnCSn2CSnTe4Mg2SnCSn2CSnTe4Mg2SnCSn2CSnTe4Mg2SnCSn2CSnTe4Mg2SnCSn2CSnTe4Mg2SnCSn2CSnTe4Mg2SnCSn2CSnTe4Mg2SnCSn2CSnTe4Mg2SnCSn2CSnTe4Mg2SnCSn2CSnTe4Mg2
_chemical_formula_sum              "Si6 C222 H120 N24 Sn96 Te96 Mg48"
_cell_length_a       20.7766
_cell_length_b       20.7243
_cell_length_c       33.6119
_cell_angle_alpha    89.8731
_cell_angle_beta     89.8384
_cell_angle_gamma    119.908

_symmetry_space_group_name_H-M    'P1'
_space_group_IT_number       1

loop_
  _space_group_symop_operation_xyz
  'x, y, z'

loop_
  _atom_site_type_symbol
  _atom_site_label
  _atom_site_symmetry_multiplicity
  _atom_site_fract_x
  _atom_site_fract_y
  _atom_site_fract_z
  _atom_site_occupancy
  Si  Si1       1.0  0.86752  0.66327  0.45767  1.0000
  Si  Si2       1.0  0.33361  0.20062  0.12109  1.0000
  Si  Si3       1.0  0.79520  0.13241  0.78868  1.0000
  Si  Si4       1.0  0.13230  0.33454  0.95722  1.0000
  Si  Si5       1.0  0.66749  0.79985  0.62173  1.0000
  Si  Si6       1.0  0.20237  0.86447  0.28791  1.0000
  C   C1        1.0  0.62388  0.85529  0.60418  1.0000
  C   C2        1.0  0.14524  0.76557  0.27075  1.0000
  C   C3        1.0  0.54910  0.83279  0.61343  1.0000
  C   C4        1.0  0.16666  0.71226  0.27983  1.0000
  H   H1        1.0  0.51657  0.78330  0.63165  1.0000
  H   H2        1.0  0.21663  0.72866  0.29723  1.0000
  C   C5        1.0  0.51554  0.87200  0.59940  1.0000
  C   C6        1.0  0.12560  0.63913  0.26681  1.0000
  H   H3        1.0  0.45763  0.85395  0.60595  1.0000
  H   H4        1.0  0.14258  0.59828  0.27320  1.0000
  C   C7        1.0  0.55642  0.93620  0.57588  1.0000
  C   C8        1.0  0.06058  0.61657  0.24457  1.0000
  C   C9        1.0  0.63131  0.96026  0.56736  1.0000
  C   C10       1.0  0.03721  0.66824  0.23656  1.0000
  H   H5        1.0  0.66315  0.01009  0.54929  1.0000
  H   H6        1.0  0.98643  0.65039  0.21968  1.0000
  C   C11       1.0  0.66431  0.92003  0.58108  1.0000
  C   C12       1.0  0.07940  0.74190  0.24912  1.0000
  H   H7        1.0  0.72197  0.93884  0.57347  1.0000
  H   H8        1.0  0.06116  0.78145  0.24182  1.0000
  C   C13       1.0  0.54953  0.52395  0.39038  1.0000
  C   C14       1.0  0.47772  0.02082  0.06128  1.0000
  C   C15       1.0  0.97758  0.45517  0.72611  1.0000
  C   C16       1.0  0.45489  0.48032  0.89595  1.0000
  C   C17       1.0  0.52277  0.97766  0.55939  1.0000
  C   C18       1.0  0.01829  0.54159  0.22834  1.0000
  H   H9        1.0  0.53786  0.56209  0.37303  1.0000
  H   H10       1.0  0.43938  0.96715  0.04736  1.0000
  H   H11       1.0  0.02990  0.46849  0.71101  1.0000
  H   H12       1.0  0.46986  0.44223  0.88121  1.0000
  H   H13       1.0  0.56107  0.03067  0.54457  1.0000
  H   H14       1.0  0.96432  0.52673  0.21504  1.0000
  N   N1        1.0  0.50082  0.45445  0.39439  1.0000
  N   N2        1.0  0.54837  0.04608  0.06170  1.0000
  N   N3        1.0  0.95489  0.50276  0.72800  1.0000
  N   N4        1.0  0.50088  0.55095  0.89717  1.0000
  N   N5        1.0  0.45221  0.95319  0.56062  1.0000
  N   N6        1.0  0.04388  0.49624  0.22780  1.0000
  C   C19       1.0  0.42961  0.42849  0.37885  1.0000
  C   C20       1.0  0.57476  0.00082  0.04625  1.0000
  C   C21       1.0  0.57231  0.57643  0.88166  1.0000
  C   C22       1.0  0.99887  0.42491  0.21223  1.0000
  C   C23       1.0  0.38857  0.46460  0.38551  1.0000
  C   C24       1.0  0.54419  0.92561  0.05691  1.0000
  C   C25       1.0  0.61502  0.54347  0.89161  1.0000
  C   C26       1.0  0.92291  0.38152  0.22124  1.0000
  H   H15       1.0  0.41256  0.51489  0.40342  1.0000
  H   H16       1.0  0.49892  0.90119  0.07844  1.0000
  H   H17       1.0  0.59267  0.49746  0.91275  1.0000
  H   H18       1.0  0.89779  0.40317  0.24178  1.0000
  C   C27       1.0  0.31649  0.43490  0.37072  1.0000
  C   C28       1.0  0.57304  0.88293  0.04114  1.0000
  C   C29       1.0  0.68626  0.57075  0.87577  1.0000
  C   C30       1.0  0.88047  0.31019  0.20539  1.0000
  H   H19       1.0  0.28522  0.46281  0.37726  1.0000
  H   H20       1.0  0.54931  0.82528  0.05046  1.0000
  H   H21       1.0  0.71857  0.54508  0.88469  1.0000
  H   H22       1.0  0.82223  0.27726  0.21357  1.0000
  C   C31       1.0  0.28407  0.36976  0.34808  1.0000
  C   C32       1.0  0.63178  0.91322  0.01374  1.0000
  C   C33       1.0  0.71658  0.63103  0.84926  1.0000
  C   C34       1.0  0.91230  0.28059  0.17980  1.0000
  C   C35       1.0  0.32609  0.33455  0.34128  1.0000
  C   C36       1.0  0.66213  0.98879  0.00345  1.0000
  C   C37       1.0  0.67339  0.66398  0.83983  1.0000
  C   C38       1.0  0.98857  0.32444  0.17118  1.0000
  H   H23       1.0  0.30234  0.28413  0.32351  1.0000
  H   H24       1.0  0.70791  0.01396  0.98231  1.0000
  H   H25       1.0  0.69591  0.71141  0.81965  1.0000
  H   H26       1.0  0.01459  0.30221  0.15169  1.0000
  C   C39       1.0  0.39668  0.36186  0.35695  1.0000
  C   C40       1.0  0.63548  0.03253  0.01974  1.0000
  C   C41       1.0  0.60316  0.63844  0.85596  1.0000
  C   C42       1.0  0.03178  0.39466  0.18743  1.0000
  H   H27       1.0  0.42760  0.33284  0.35239  1.0000
  H   H28       1.0  0.66006  0.09108  0.01184  1.0000
  H   H29       1.0  0.57089  0.66504  0.84864  1.0000
  H   H30       1.0  0.09096  0.42724  0.18110  1.0000
  C   C43       1.0  0.09009  0.39208  0.94074  1.0000
  C   C44       1.0  0.60965  0.70104  0.60357  1.0000
  C   C45       1.0  0.13153  0.45772  0.91842  1.0000
  C   C46       1.0  0.54288  0.67762  0.58280  1.0000
  H   H31       1.0  0.18935  0.47670  0.91119  1.0000
  H   H32       1.0  0.52208  0.71593  0.57832  1.0000
  C   C47       1.0  0.09933  0.49866  0.90473  1.0000
  C   C48       1.0  0.50267  0.60587  0.56734  1.0000
  H   H33       1.0  0.13227  0.54943  0.88754  1.0000
  H   H34       1.0  0.45066  0.58868  0.55181  1.0000
  C   C49       1.0  0.02385  0.47392  0.91177  1.0000
  C   C50       1.0  0.52923  0.55562  0.57078  1.0000
  C   C51       1.0  0.98192  0.40850  0.93432  1.0000
  C   C52       1.0  0.59584  0.57822  0.59162  1.0000
  H   H35       1.0  0.92362  0.38970  0.94009  1.0000
  H   H36       1.0  0.61610  0.53904  0.59444  1.0000
  C   C53       1.0  0.01474  0.36876  0.94878  1.0000
  C   C54       1.0  0.63445  0.64908  0.60817  1.0000
  H   H37       1.0  0.98072  0.31798  0.96588  1.0000
  H   H38       1.0  0.68534  0.66450  0.62452  1.0000
  C   C55       1.0  0.00781  0.48476  0.38981  1.0000
  C   C56       1.0  0.51166  0.52177  0.05632  1.0000
  C   C57       1.0  0.47743  0.99014  0.72175  1.0000
  C   C58       1.0  0.99155  0.51613  0.89445  1.0000
  C   C59       1.0  0.48668  0.48209  0.55255  1.0000
  C   C60       1.0  0.52227  0.00027  0.22192  1.0000
  H   H39       1.0  0.96773  0.42915  0.37849  1.0000
  H   H40       1.0  0.56662  0.53646  0.04423  1.0000
  H   H41       1.0  0.46150  0.03021  0.71061  1.0000
  H   H42       1.0  0.03167  0.57158  0.88266  1.0000
  H   H43       1.0  0.43102  0.46753  0.54184  1.0000
  H   H44       1.0  0.53783  0.95968  0.21121  1.0000
  N   N7        1.0  0.07842  0.51119  0.38613  1.0000
  N   N8        1.0  0.48660  0.56747  0.05386  1.0000
  N   N9        1.0  0.43326  0.91937  0.71849  1.0000
  N   N10       1.0  0.92090  0.48991  0.89144  1.0000
  N   N11       1.0  0.51220  0.43706  0.54832  1.0000
  N   N12       1.0  0.56650  0.07102  0.21806  1.0000
  C   C61       1.0  0.36138  0.89495  0.70407  1.0000
  C   C62       1.0  0.89570  0.53647  0.87613  1.0000
  C   C63       1.0  0.46532  0.36511  0.53365  1.0000
  C   C64       1.0  0.31671  0.92279  0.71886  1.0000
  C   C65       1.0  0.92477  0.61059  0.88838  1.0000
  C   C66       1.0  0.39036  0.32171  0.54494  1.0000
  H   H45       1.0  0.33877  0.96532  0.74181  1.0000
  H   H46       1.0  0.96911  0.63357  0.91025  1.0000
  H   H47       1.0  0.36589  0.34503  0.56483  1.0000
  C   C67       1.0  0.24372  0.89433  0.70570  1.0000
  C   C68       1.0  0.89495  0.65362  0.87431  1.0000
  C   C69       1.0  0.34796  0.24785  0.53253  1.0000
  H   H48       1.0  0.21028  0.91621  0.71831  1.0000
  H   H49       1.0  0.91786  0.71023  0.88506  1.0000
  H   H50       1.0  0.29069  0.21537  0.54250  1.0000
  C   C70       1.0  0.21337  0.83805  0.67710  1.0000
  C   C71       1.0  0.83580  0.62462  0.84743  1.0000
  C   C72       1.0  0.37840  0.21484  0.50837  1.0000
  C   C73       1.0  0.25943  0.81231  0.66135  1.0000
  C   C74       1.0  0.80897  0.55126  0.83398  1.0000
  C   C75       1.0  0.45231  0.25984  0.49530  1.0000
  H   H51       1.0  0.23775  0.77002  0.63826  1.0000
  H   H52       1.0  0.76440  0.52819  0.81223  1.0000
  H   H53       1.0  0.47654  0.23635  0.47534  1.0000
  C   C76       1.0  0.33136  0.83877  0.67503  1.0000
  C   C77       1.0  0.83696  0.50732  0.84858  1.0000
  C   C78       1.0  0.49546  0.33289  0.50818  1.0000
  H   H54       1.0  0.36577  0.81730  0.66320  1.0000
  H   H55       1.0  0.81434  0.45005  0.83884  1.0000
  H   H56       1.0  0.55304  0.36651  0.49872  1.0000
  C   C79       1.0  0.92441  0.76017  0.43681  1.0000
  C   C80       1.0  0.83426  0.07495  0.76782  1.0000
  C   C81       1.0  0.07522  0.23809  0.93647  1.0000
  C   C82       1.0  0.76438  0.84025  0.60097  1.0000
  C   C83       1.0  0.91564  0.81850  0.45254  1.0000
  C   C84       1.0  0.90003  0.08076  0.78341  1.0000
  C   C85       1.0  0.08509  0.17911  0.95026  1.0000
  C   C86       1.0  0.82249  0.90863  0.61539  1.0000
  H   H57       1.0  0.87491  0.80622  0.47602  1.0000
  H   H58       1.0  0.92786  0.11844  0.80805  1.0000
  H   H59       1.0  0.12662  0.18977  0.97290  1.0000
  H   H60       1.0  0.81041  0.93868  0.63798  1.0000
  C   C87       1.0  0.95734  0.89130  0.43868  1.0000
  C   C88       1.0  0.93058  0.03977  0.76785  1.0000
  C   C89       1.0  0.04298  0.10727  0.93552  1.0000
  C   C90       1.0  0.89496  0.93923  0.60125  1.0000
  H   H61       1.0  0.94990  0.93568  0.45102  1.0000
  H   H62       1.0  0.98168  0.04506  0.77975  1.0000
  H   H63       1.0  0.05091  0.06204  0.94610  1.0000
  H   H64       1.0  0.93908  0.99209  0.61249  1.0000
  C   C91       1.0  0.00968  0.90828  0.40790  1.0000
  C   C92       1.0  0.89586  0.99085  0.73583  1.0000
  C   C93       1.0  0.98889  0.09172  0.90616  1.0000
  C   C94       1.0  0.91208  0.90180  0.57176  1.0000
  C   C95       1.0  0.01792  0.85041  0.39163  1.0000
  C   C96       1.0  0.83046  0.98476  0.72017  1.0000
  C   C97       1.0  0.97968  0.15026  0.89174  1.0000
  C   C98       1.0  0.85449  0.83443  0.55688  1.0000
  H   H65       1.0  0.05894  0.86323  0.36827  1.0000
  H   H66       1.0  0.80188  0.94556  0.69628  1.0000
  H   H67       1.0  0.93757  0.13892  0.86941  1.0000
  H   H68       1.0  0.86746  0.80440  0.53477  1.0000
  C   C99       1.0  0.97607  0.77762  0.40582  1.0000
  C   C100      1.0  0.80027  0.02618  0.73582  1.0000
  C   C101      1.0  0.02211  0.22220  0.90666  1.0000
  C   C102      1.0  0.78199  0.80422  0.57110  1.0000
  H   H69       1.0  0.98465  0.73436  0.39295  1.0000
  H   H70       1.0  0.74904  0.01946  0.72332  1.0000
  H   H71       1.0  0.01279  0.26612  0.89536  1.0000
  H   H72       1.0  0.73917  0.75148  0.55911  1.0000
  C   C103      1.0  0.05422  0.98335  0.39156  1.0000
  C   C104      1.0  0.01759  0.07079  0.05312  1.0000
  C   C105      1.0  0.92663  0.94741  0.71817  1.0000
  C   C106      1.0  0.94311  0.01675  0.89019  1.0000
  C   C107      1.0  0.98696  0.93100  0.55550  1.0000
  C   C108      1.0  0.07342  0.05433  0.22157  1.0000
  H   H73       1.0  0.08608  0.98800  0.36444  1.0000
  H   H74       1.0  0.01216  0.10167  0.02787  1.0000
  H   H75       1.0  0.89971  0.91681  0.69081  1.0000
  H   H76       1.0  0.90704  0.01141  0.86499  1.0000
  H   H77       1.0  0.99170  0.90108  0.52964  1.0000
  H   H78       1.0  0.10332  0.08893  0.19559  1.0000
  N   N13       1.0  0.05629  0.04108  0.40750  1.0000
  N   N14       1.0  0.96108  0.01258  0.06809  1.0000
  N   N15       1.0  0.98208  0.94512  0.73391  1.0000
  N   N16       1.0  0.94463  0.95992  0.90497  1.0000
  N   N17       1.0  0.04425  0.98834  0.57023  1.0000
  N   N18       1.0  0.01648  0.05477  0.23682  1.0000
  C   C109      1.0  0.09392  0.10974  0.38750  1.0000
  C   C110      1.0  0.01493  0.90889  0.71449  1.0000
  C   C111      1.0  0.98593  0.09305  0.21728  1.0000
  C   C112      1.0  0.13249  0.17522  0.41013  1.0000
  C   C113      1.0  0.03960  0.86928  0.73810  1.0000
  C   C114      1.0  0.95730  0.12974  0.24039  1.0000
  H   H79       1.0  0.13443  0.17038  0.44229  1.0000
  H   H80       1.0  0.02912  0.86573  0.76999  1.0000
  H   H81       1.0  0.96323  0.13040  0.27257  1.0000
  C   C115      1.0  0.16847  0.24451  0.39157  1.0000
  C   C116      1.0  0.07502  0.83434  0.72092  1.0000
  C   C117      1.0  0.92307  0.16507  0.22232  1.0000
  H   H82       1.0  0.19994  0.29428  0.40945  1.0000
  H   H83       1.0  0.09106  0.80179  0.73959  1.0000
  H   H84       1.0  0.90332  0.19499  0.24060  1.0000
  C   C118      1.0  0.16473  0.25232  0.35004  1.0000
  C   C119      1.0  0.09066  0.83974  0.67979  1.0000
  C   C120      1.0  0.91228  0.16239  0.18079  1.0000
  C   C121      1.0  0.12618  0.18698  0.32776  1.0000
  C   C122      1.0  0.06682  0.88007  0.65656  1.0000
  C   C123      1.0  0.94097  0.12594  0.15802  1.0000
  H   H85       1.0  0.12177  0.18976  0.29565  1.0000
  H   H86       1.0  0.07756  0.88632  0.62473  1.0000
  H   H87       1.0  0.93396  0.12221  0.12592  1.0000
  C   C124      1.0  0.09163  0.11680  0.34598  1.0000
  C   C125      1.0  0.02918  0.91379  0.67333  1.0000
  C   C126      1.0  0.97790  0.09240  0.17572  1.0000
  H   H88       1.0  0.06076  0.06750  0.32767  1.0000
  H   H89       1.0  0.01329  0.94599  0.65422  1.0000
  H   H90       1.0  0.99802  0.06323  0.15706  1.0000
  C   C127      1.0  0.32427  0.19166  0.17670  1.0000
  C   C128      1.0  0.80324  0.13245  0.84438  1.0000
  C   C129      1.0  0.13385  0.32682  0.01301  1.0000
  C   C130      1.0  0.19521  0.86485  0.34374  1.0000
  C   C131      1.0  0.36361  0.16459  0.19876  1.0000
  C   C132      1.0  0.83070  0.19906  0.86626  1.0000
  C   C133      1.0  0.20037  0.36696  0.03469  1.0000
  C   C134      1.0  0.16512  0.79795  0.36584  1.0000
  H   H91       1.0  0.40040  0.14931  0.18362  1.0000
  H   H92       1.0  0.84676  0.25123  0.85087  1.0000
  H   H93       1.0  0.25200  0.40415  0.01928  1.0000
  H   H94       1.0  0.14743  0.74539  0.35072  1.0000
  C   C135      1.0  0.35499  0.15513  0.23969  1.0000
  C   C136      1.0  0.83932  0.19995  0.90726  1.0000
  C   C137      1.0  0.20197  0.35917  0.07567  1.0000
  C   C138      1.0  0.15624  0.79740  0.40684  1.0000
  H   H95       1.0  0.38510  0.13401  0.25662  1.0000
  H   H96       1.0  0.86060  0.25137  0.92399  1.0000
  H   H97       1.0  0.25324  0.39048  0.09223  1.0000
  H   H98       1.0  0.13305  0.74579  0.42374  1.0000
  C   C139      1.0  0.30501  0.17056  0.26006  1.0000
  C   C140      1.0  0.82286  0.13430  0.92786  1.0000
  C   C141      1.0  0.13733  0.30885  0.09655  1.0000
  C   C142      1.0  0.17525  0.86368  0.42725  1.0000
  C   C143      1.0  0.26586  0.19813  0.23850  1.0000
  C   C144      1.0  0.79444  0.06735  0.90649  1.0000
  C   C145      1.0  0.07050  0.26901  0.07537  1.0000
  C   C146      1.0  0.20577  0.93085  0.40562  1.0000
  H   H99       1.0  0.22738  0.21093  0.25385  1.0000
  H   H100      1.0  0.78036  0.01579  0.92204  1.0000
  H   H101      1.0  0.01972  0.23018  0.09102  1.0000
  H   H102      1.0  0.22161  0.98287  0.42098  1.0000
  C   C147      1.0  0.27592  0.20905  0.19746  1.0000
  C   C148      1.0  0.78425  0.06642  0.86544  1.0000
  C   C149      1.0  0.06877  0.27864  0.03435  1.0000
  C   C150      1.0  0.21620  0.93135  0.36456  1.0000
  H   H103      1.0  0.24437  0.22972  0.18139  1.0000
  H   H104      1.0  0.76273  0.01383  0.84967  1.0000
  H   H105      1.0  0.01629  0.24684  0.01875  1.0000
  H   H106      1.0  0.23996  0.98416  0.34861  1.0000
  C   C151      1.0  0.86580  0.70515  0.63963  1.0000
  C   C152      1.0  0.29391  0.15815  0.30291  1.0000
  C   C153      1.0  0.83595  0.13519  0.97056  1.0000
  C   C154      1.0  0.13908  0.29781  0.13940  1.0000
  C   C155      1.0  0.70401  0.83856  0.80407  1.0000
  C   C156      1.0  0.16366  0.86337  0.47012  1.0000
  H   H107      1.0  0.91620  0.75222  0.65216  1.0000
  H   H108      1.0  0.24679  0.16122  0.31587  1.0000
  H   H109      1.0  0.83168  0.08415  0.98318  1.0000
  H   H110      1.0  0.08878  0.25104  0.15250  1.0000
  H   H111      1.0  0.75084  0.83478  0.81669  1.0000
  H   H112      1.0  0.17166  0.91564  0.48296  1.0000
  N   N19       1.0  0.80841  0.66175  0.66109  1.0000
  N   N20       1.0  0.33821  0.14479  0.32384  1.0000
  N   N21       1.0  0.85130  0.19309  0.99178  1.0000
  N   N22       1.0  0.19676  0.34138  0.16037  1.0000
  N   N23       1.0  0.65979  0.85136  0.82555  1.0000
  N   N24       1.0  0.14567  0.80467  0.49144  1.0000
  C   C157      1.0  0.66538  0.85537  0.86721  1.0000
  C   C158      1.0  0.14206  0.80706  0.53307  1.0000
  C   C159      1.0  0.70179  0.82677  0.89069  1.0000
  C   C160      1.0  0.17628  0.87257  0.55606  1.0000
  H   H113      1.0  0.72857  0.79867  0.87707  1.0000
  H   H114      1.0  0.20795  0.92683  0.54194  1.0000
  C   C161      1.0  0.70148  0.83161  0.93191  1.0000
  C   C162      1.0  0.17268  0.86847  0.59732  1.0000
  H   H115      1.0  0.72758  0.80675  0.94942  1.0000
  H   H116      1.0  0.20207  0.91963  0.61437  1.0000
  C   C163      1.0  0.66762  0.86704  0.95158  1.0000
  C   C164      1.0  0.13305  0.79989  0.61755  1.0000
  C   C165      1.0  0.62996  0.89359  0.92820  1.0000
  C   C166      1.0  0.10044  0.73498  0.59459  1.0000
  H   H117      1.0  0.60123  0.91923  0.94233  1.0000
  H   H118      1.0  0.07129  0.68089  0.60907  1.0000
  C   C167      1.0  0.62819  0.88720  0.88684  1.0000
  C   C168      1.0  0.10542  0.73844  0.55315  1.0000
  H   H119      1.0  0.59797  0.90701  0.86891  1.0000
  H   H120      1.0  0.08069  0.68777  0.53556  1.0000
  C   C169      1.0  0.79701  0.66768  0.83308  1.0000
  C   C170      1.0  0.33527  0.13220  0.49571  1.0000
  C   C171      1.0  0.87043  0.20040  0.16345  1.0000
  C   C172      1.0  0.20361  0.33206  0.33231  1.0000
  C   C173      1.0  0.66866  0.86974  0.99742  1.0000
  C   C174      1.0  0.13151  0.79977  0.66343  1.0000
  C  Sn1       1.0  0.70052  0.63211  0.38970  1.0000
  C   C175      1.0  0.63922  0.56213  0.39775  1.0000
  C  Sn2       1.0  0.63996  0.52016  0.43015  1.0000
  C  Sn3       1.0  0.70328  0.54876  0.45502  1.0000
  C   C176      1.0  0.76452  0.61870  0.44697  1.0000
  C  Sn4       1.0  0.76383  0.66070  0.41457  1.0000
  O  Te1       1.0  0.69856  0.67309  0.35715  1.0000
  O  Te2       1.0  0.57803  0.45034  0.43760  1.0000
  O  Te3       1.0  0.70519  0.50770  0.48758  1.0000
  O  Te4       1.0  0.82571  0.73049  0.40712  1.0000
  Mg  Mg1       1.0  0.60726  0.41556  0.48552  1.0000
  Mg  Mg2       1.0  0.79652  0.76533  0.35922  1.0000
  C  Sn5       1.0  0.66428  0.99348  0.21484  1.0000
  C   C177      1.0  0.60067  0.99427  0.22773  1.0000
  C  Sn6       1.0  0.56739  0.96173  0.26407  1.0000
  C  Sn7       1.0  0.59835  0.92774  0.28804  1.0000
  C   C178      1.0  0.66193  0.92697  0.27515  1.0000
  C  Sn8       1.0  0.69524  0.95948  0.23881  1.0000
  O  Te5       1.0  0.19928  0.02635  0.17841  1.0000
  O  Te6       1.0  0.50381  0.96320  0.27633  1.0000
  O  Te7       1.0  0.56594  0.89485  0.32449  1.0000
  O  Te8       1.0  0.75879  0.95804  0.22655  1.0000
  Mg  Mg3       1.0  0.47995  0.91105  0.32832  1.0000
  Mg  Mg4       1.0  0.28536  0.01020  0.17458  1.0000
  C  Sn9       1.0  0.82386  0.99426  0.51505  1.0000
  C   C179      1.0  0.35515  0.07083  0.51933  1.0000
  C  Sn10      1.0  0.42591  0.11555  0.53516  1.0000
  C  Sn11      1.0  0.46897  0.08306  0.54693  1.0000
  C   C180      1.0  0.44033  0.00654  0.54263  1.0000
  C  Sn12      1.0  0.86692  0.96177  0.52681  1.0000
  O  Te9       1.0  0.75298  0.95063  0.49915  1.0000
  O  Te10      1.0  0.45334  0.19196  0.53918  1.0000
  O  Te11      1.0  0.53989  0.12677  0.56284  1.0000
  O  Te12      1.0  0.83949  0.88541  0.52279  1.0000
  Mg  Mg5       1.0  0.55296  0.22813  0.56240  1.0000
  Mg  Mg6       1.0  0.73990  0.84920  0.49955  1.0000
  C  Sn13      1.0  0.90090  0.82875  0.82909  1.0000
  C   C181      1.0  0.85978  0.75934  0.84758  1.0000
  C  Sn14      1.0  0.83473  0.75421  0.88670  1.0000
  C  Sn15      1.0  0.85109  0.81984  0.90777  1.0000
  C   C182      1.0  0.89218  0.88920  0.88928  1.0000
  C  Sn16      1.0  0.91726  0.89438  0.85017  1.0000
  O  Te13      1.0  0.92538  0.83255  0.78996  1.0000
  O  Te14      1.0  0.79373  0.68419  0.90456  1.0000
  O  Te15      1.0  0.82657  0.81598  0.94693  1.0000
  O  Te16      1.0  0.95822  0.96434  0.83231  1.0000
  Mg  Mg7       1.0  0.77262  0.70782  0.95839  1.0000
  Mg  Mg8       1.0  0.97933  0.94078  0.77847  1.0000
  C  Sn17      1.0  0.97741  0.61172  0.67436  1.0000
  C   C183      1.0  0.99924  0.57402  0.70071  1.0000
  C  Sn18      1.0  0.06673  0.61226  0.72084  1.0000
  C  Sn19      1.0  0.11335  0.68982  0.71452  1.0000
  C   C184      1.0  0.09151  0.72748  0.68820  1.0000
  C  Sn20      1.0  0.02403  0.68928  0.66805  1.0000
  O  Te17      1.0  0.90971  0.57236  0.65456  1.0000
  O  Te18      1.0  0.08737  0.57336  0.74702  1.0000
  O  Te19      1.0  0.18110  0.72916  0.73435  1.0000
  O  Te20      1.0  0.00338  0.72814  0.64189  1.0000
  Mg  Mg9       1.0  0.18485  0.65155  0.76704  1.0000
  Mg  Mg10      1.0  0.90591  0.65002  0.62187  1.0000
  C  Sn21      1.0  0.87172  0.98950  0.00074  1.0000
  C   C185      1.0  0.39277  0.00071  0.04106  1.0000
  C  Sn22      1.0  0.83629  0.96142  0.07014  1.0000
  C  Sn23      1.0  0.76253  0.90981  0.05867  1.0000
  C   C186      1.0  0.74416  0.89861  0.01837  1.0000
  C  Sn24      1.0  0.78951  0.93007  0.98927  1.0000
  O  Te21      1.0  0.42063  0.02157  0.97217  1.0000
  O  Te22      1.0  0.85601  0.97359  0.11027  1.0000
  O  Te23      1.0  0.70781  0.86992  0.08727  1.0000
  O  Te24      1.0  0.76982  0.91791  0.94917  1.0000
  Mg  Mg11      1.0  0.76185  0.90583  0.13811  1.0000
  Mg  Mg12      1.0  0.86394  0.98560  0.92129  1.0000
  C  Sn25      1.0  0.20265  0.46853  0.34020  1.0000
  C   C187      1.0  0.18011  0.39487  0.35049  1.0000
  C  Sn26      1.0  0.11241  0.35090  0.36996  1.0000
  C  Sn27      1.0  0.06624  0.38116  0.37932  1.0000
  C   C188      1.0  0.08877  0.45477  0.36902  1.0000
  C  Sn28      1.0  0.15648  0.49879  0.34956  1.0000
  O  Te25      1.0  0.27056  0.51146  0.32074  1.0000
  O  Te26      1.0  0.09107  0.27742  0.37995  1.0000
  O  Te27      1.0  0.99829  0.33816  0.39879  1.0000
  O  Te28      1.0  0.17781  0.57222  0.33956  1.0000
  Mg  Mg13      1.0  0.99353  0.24110  0.40623  1.0000
  Mg  Mg14      1.0  0.27532  0.60858  0.31326  1.0000
  C  Sn29      1.0  0.67632  0.15129  0.16245  1.0000
  C   C189      1.0  0.63909  0.09500  0.19071  1.0000
  C  Sn30      1.0  0.67856  0.07279  0.21540  1.0000
  C  Sn31      1.0  0.75689  0.10759  0.21177  1.0000
  C   C190      1.0  0.79409  0.16385  0.18352  1.0000
  C  Sn32      1.0  0.75466  0.18609  0.15882  1.0000
  O  Te29      1.0  0.63574  0.17260  0.13809  1.0000
  O  Te30      1.0  0.64011  0.01637  0.24343  1.0000
  O  Te31      1.0  0.79746  0.08622  0.23616  1.0000
  O  Te32      1.0  0.79307  0.24248  0.13081  1.0000
  Mg  Mg15      1.0  0.72004  0.00680  0.26981  1.0000
  Mg  Mg16      1.0  0.71320  0.25212  0.10442  1.0000
  C  Sn33      1.0  0.20324  0.20638  0.07429  1.0000
  C   C191      1.0  0.22937  0.17418  0.10175  1.0000
  C  Sn34      1.0  0.18732  0.09846  0.11097  1.0000
  C  Sn35      1.0  0.11772  0.05396  0.09233  1.0000
  C   C192      1.0  0.09164  0.08615  0.06488  1.0000
  C  Sn36      1.0  0.13365  0.16188  0.05565  1.0000
  O  Te33      1.0  0.24622  0.28219  0.06552  1.0000
  O  Te34      1.0  0.21459  0.06753  0.13853  1.0000
  O  Te35      1.0  0.57211  0.97809  0.10112  1.0000
  O  Te36      1.0  0.10642  0.19280  0.02810  1.0000
  Mg  Mg17      1.0  0.63302  0.96164  0.14062  1.0000
  Mg  Mg18      1.0  0.18531  0.29867  0.02598  1.0000
  C  Sn37      1.0  0.75179  0.81794  0.72878  1.0000
  C   C193      1.0  0.71701  0.84331  0.75501  1.0000
  C  Sn38      1.0  0.65380  0.84574  0.74329  1.0000
  C  Sn39      1.0  0.62471  0.82229  0.70455  1.0000
  C   C194      1.0  0.65947  0.79693  0.67834  1.0000
  C  Sn40      1.0  0.72269  0.79449  0.69003  1.0000
  O  Te37      1.0  0.81491  0.81599  0.74113  1.0000
  O  Te38      1.0  0.62002  0.87134  0.77004  1.0000
  O  Te39      1.0  0.56153  0.82427  0.69221  1.0000
  O  Te40      1.0  0.75646  0.76890  0.66331  1.0000
  Mg  Mg19      1.0  0.53523  0.86355  0.73937  1.0000
  Mg  Mg20      1.0  0.84123  0.77663  0.69396  1.0000
  C  Sn41      1.0  0.87060  0.34929  0.77967  1.0000
  C   C195      1.0  0.93363  0.37981  0.75527  1.0000
  C  Sn42      1.0  0.95304  0.33355  0.73460  1.0000
  C  Sn43      1.0  0.90849  0.25515  0.73836  1.0000
  C   C196      1.0  0.84550  0.22466  0.76274  1.0000
  C  Sn44      1.0  0.82606  0.27088  0.78344  1.0000
  O  Te41      1.0  0.85225  0.39659  0.80006  1.0000
  O  Te42      1.0  0.01632  0.36536  0.71040  1.0000
  O  Te43      1.0  0.92689  0.20785  0.71795  1.0000
  O  Te44      1.0  0.76281  0.23911  0.80762  1.0000
  Mg  Mg21      1.0  0.01833  0.27770  0.68861  1.0000
  Mg  Mg22      1.0  0.76072  0.32671  0.82940  1.0000
  C  Sn45      1.0  0.62313  0.10663  0.72687  1.0000
  C   C197      1.0  0.56625  0.03268  0.73056  1.0000
  C  Sn46      1.0  0.06880  0.98548  0.75849  1.0000
  C  Sn47      1.0  0.63478  0.01278  0.78327  1.0000
  C   C198      1.0  0.69161  0.08669  0.77958  1.0000
  C  Sn48      1.0  0.68647  0.13393  0.75166  1.0000
  O  Te45      1.0  0.61677  0.15282  0.69875  1.0000
  O  Te46      1.0  0.01123  0.91175  0.76161  1.0000
  O  Te47      1.0  0.13846  0.96651  0.81141  1.0000
  O  Te48      1.0  0.74398  0.20762  0.74853  1.0000
  Mg  Mg23      1.0  0.04553  0.87045  0.80443  1.0000
  Mg  Mg24      1.0  0.70974  0.24897  0.70574  1.0000
  C  Sn49      1.0  0.23411  0.05604  0.56079  1.0000
  C   C199      1.0  0.25134  0.06893  0.52029  1.0000
  C  Sn50      1.0  0.19802  0.06320  0.49310  1.0000
  C  Sn51      1.0  0.12598  0.04423  0.50668  1.0000
  C   C200      1.0  0.10878  0.03136  0.54716  1.0000
  C  Sn52      1.0  0.16207  0.03707  0.57437  1.0000
  O  Te49      1.0  0.28828  0.06209  0.58744  1.0000
  O  Te50      1.0  0.21655  0.07632  0.45275  1.0000
  O  Te51      1.0  0.07180  0.03819  0.47999  1.0000
  O  Te52      1.0  0.14358  0.02397  0.61469  1.0000
  Mg  Mg25      1.0  0.12374  0.06133  0.42800  1.0000
  Mg  Mg26      1.0  0.23635  0.03898  0.63947  1.0000
  C  Sn53      1.0  0.47614  0.12689  0.11436  1.0000
  C   C201      1.0  0.44474  0.06347  0.09042  1.0000
  C  Sn54      1.0  0.37975  0.04343  0.06921  1.0000
  C  Sn55      1.0  0.34545  0.08772  0.07197  1.0000
  C   C202      1.0  0.37685  0.15110  0.09589  1.0000
  C  Sn56      1.0  0.44183  0.17118  0.11711  1.0000
  O  Te53      1.0  0.54114  0.14587  0.13529  1.0000
  O  Te54      1.0  0.84674  0.97977  0.04548  1.0000
  O  Te55      1.0  0.28040  0.06868  0.05101  1.0000
  O  Te56      1.0  0.47220  0.23480  0.14082  1.0000
  Mg  Mg27      1.0  0.75762  0.97691  0.02265  1.0000
  Mg  Mg28      1.0  0.56133  0.23773  0.16366  1.0000
  C  Sn57      1.0  0.30679  0.36814  0.89366  1.0000
  C   C203      1.0  0.36521  0.43954  0.90194  1.0000
  C  Sn58      1.0  0.35886  0.48117  0.93275  1.0000
  C  Sn59      1.0  0.29275  0.45080  0.95579  1.0000
  C   C204      1.0  0.23438  0.37944  0.94750  1.0000
  C  Sn60      1.0  0.24068  0.33776  0.91669  1.0000
  O  Te57      1.0  0.31435  0.32751  0.86271  1.0000
  O  Te58      1.0  0.41800  0.55244  0.94046  1.0000
  O  Te59      1.0  0.28523  0.49150  0.98675  1.0000
  O  Te60      1.0  0.18159  0.26653  0.90898  1.0000
  Mg  Mg29      1.0  0.38115  0.58604  0.98577  1.0000
  Mg  Mg30      1.0  0.21839  0.23287  0.86370  1.0000
  C  Sn61      1.0  0.73494  0.65249  0.73014  1.0000
  C   C205      1.0  0.79858  0.67814  0.70651  1.0000
  C  Sn62      1.0  0.86600  0.69331  0.72345  1.0000
  C  Sn63      1.0  0.86988  0.68257  0.76487  1.0000
  C   C206      1.0  0.80626  0.65692  0.78848  1.0000
  C  Sn64      1.0  0.73882  0.64175  0.77156  1.0000
  O  Te61      1.0  0.66813  0.63768  0.71256  1.0000
  O  Te62      1.0  0.92888  0.71893  0.69922  1.0000
  O  Te63      1.0  0.93676  0.69741  0.78243  1.0000
  O  Te64      1.0  0.67597  0.61614  0.79576  1.0000
  Mg  Mg31      1.0  0.00711  0.73129  0.73703  1.0000
  Mg  Mg32      1.0  0.59770  0.60372  0.75799  1.0000
  C  Sn65      1.0  0.31551  0.19254  0.39789  1.0000
  C   C207      1.0  0.34359  0.16274  0.37011  1.0000
  C  Sn66      1.0  0.36438  0.11108  0.38194  1.0000
  C  Sn67      1.0  0.35690  0.08870  0.42239  1.0000
  C   C208      1.0  0.32882  0.11849  0.45015  1.0000
  C  Sn68      1.0  0.30803  0.17017  0.43834  1.0000
  O  Te65      1.0  0.29507  0.24411  0.38539  1.0000
  O  Te66      1.0  0.39233  0.08207  0.35363  1.0000
  O  Te67      1.0  0.37737  0.03709  0.43487  1.0000
  O  Te68      1.0  0.28007  0.19915  0.46663  1.0000
  Mg  Mg33      1.0  0.41254  0.01339  0.38520  1.0000
  Mg  Mg34      1.0  0.25982  0.26780  0.43509  1.0000
  C  Sn69      1.0  0.35886  0.36186  0.10021  1.0000
  C   C209      1.0  0.37597  0.30489  0.09678  1.0000
  C  Sn70      1.0  0.44654  0.32073  0.08423  1.0000
  C  Sn71      1.0  0.50117  0.39508  0.07495  1.0000
  C   C210      1.0  0.48406  0.45201  0.07839  1.0000
  C  Sn72      1.0  0.41349  0.43621  0.09093  1.0000
  O  Te69      1.0  0.28796  0.34475  0.11282  1.0000
  O  Te70      1.0  0.46233  0.26282  0.08101  1.0000
  O  Te71      1.0  0.57212  0.41215  0.06234  1.0000
  O  Te72      1.0  0.39770  0.49407  0.09416  1.0000
  Mg  Mg35      1.0  0.56692  0.31416  0.06262  1.0000
  Mg  Mg36      1.0  0.29315  0.44281  0.11257  1.0000
  C  Sn73      1.0  0.36253  0.99688  0.26297  1.0000
  C   C211      1.0  0.30594  0.92250  0.26190  1.0000
  C  Sn74      1.0  0.32202  0.86644  0.25241  1.0000
  C  Sn75      1.0  0.39622  0.88510  0.24385  1.0000
  C   C212      1.0  0.45276  0.95944  0.24494  1.0000
  C  Sn76      1.0  0.93938  0.01554  0.25441  1.0000
  O  Te73      1.0  0.84782  0.05201  0.27253  1.0000
  O  Te74      1.0  0.26450  0.79248  0.25151  1.0000
  O  Te75      1.0  0.41354  0.82989  0.23429  1.0000
  O  Te76      1.0  0.99685  0.08946  0.25532  1.0000
  Mg  Mg37      1.0  0.31604  0.73724  0.23692  1.0000
  Mg  Mg38      1.0  0.94538  0.14474  0.26993  1.0000
  C  Sn77      1.0  0.91434  0.26652  0.06059  1.0000
  C   C213      1.0  0.87844  0.20292  0.03694  1.0000
  C  Sn78      1.0  0.82939  0.13397  0.05403  1.0000
  C  Sn79      1.0  0.81590  0.12847  0.09562  1.0000
  C   C214      1.0  0.85177  0.19203  0.11925  1.0000
  C  Sn80      1.0  0.90084  0.26101  0.10219  1.0000
  O  Te77      1.0  0.96314  0.33488  0.04287  1.0000
  O  Te78      1.0  0.79418  0.07117  0.02977  1.0000
  O  Te79      1.0  0.76705  0.06003  0.11333  1.0000
  O  Te80      1.0  0.93603  0.32378  0.12642  1.0000
  Mg  Mg39      1.0  0.22981  0.99047  0.06782  1.0000
  Mg  Mg40      1.0  0.99773  0.40452  0.08840  1.0000
  C  Sn81      1.0  0.86469  0.51510  0.42631  1.0000
  C   C215      1.0  0.89955  0.58334  0.44611  1.0000
  C  Sn82      1.0  0.97674  0.62826  0.44488  1.0000
  C  Sn83      1.0  0.02001  0.60451  0.42338  1.0000
  C   C216      1.0  0.98516  0.53632  0.40359  1.0000
  C  Sn84      1.0  0.90796  0.49135  0.40481  1.0000
  O  Te81      1.0  0.78744  0.47110  0.42794  1.0000
  O  Te82      1.0  0.01033  0.69625  0.46492  1.0000
  O  Te83      1.0  0.09732  0.64858  0.42176  1.0000
  O  Te84      1.0  0.87438  0.42342  0.38478  1.0000
  Mg  Mg41      1.0  0.11733  0.73657  0.45387  1.0000
  Mg  Mg42      1.0  0.76738  0.38306  0.39579  1.0000
  C  Sn85      1.0  0.12577  0.31905  0.23462  1.0000
  C   C217      1.0  0.18408  0.34706  0.20705  1.0000
  C  Sn86      1.0  0.25526  0.36401  0.21877  1.0000
  C  Sn87      1.0  0.26843  0.35270  0.25888  1.0000
  C   C218      1.0  0.21014  0.32470  0.28642  1.0000
  C  Sn88      1.0  0.13894  0.30774  0.27472  1.0000
  O  Te85      1.0  0.05506  0.30249  0.22224  1.0000
  O  Te86      1.0  0.31267  0.39197  0.19068  1.0000
  O  Te87      1.0  0.33921  0.36929  0.27124  1.0000
  O  Te88      1.0  0.08155  0.27979  0.30279  1.0000
  Mg  Mg43      1.0  0.39933  0.40610  0.22196  1.0000
  Mg  Mg44      1.0  0.99486  0.26560  0.27153  1.0000
  C  Sn89      1.0  0.79916  0.62188  0.56937  1.0000
  C   C219      1.0  0.85900  0.66661  0.59405  1.0000
  C  Sn90      1.0  0.92529  0.72324  0.57787  1.0000
  C  Sn91      1.0  0.93190  0.73546  0.53615  1.0000
  C   C220      1.0  0.87209  0.69075  0.51150  1.0000
  C  Sn92      1.0  0.80577  0.63409  0.52765  1.0000
  O  Te89      1.0  0.73341  0.56558  0.58619  1.0000
  O  Te90      1.0  0.98435  0.76723  0.60314  1.0000
  O  Te91      1.0  0.99773  0.79181  0.51934  1.0000
  O  Te92      1.0  0.74673  0.59013  0.50240  1.0000
  Mg  Mg45      1.0  0.06253  0.83699  0.56607  1.0000
  Mg  Mg46      1.0  0.66852  0.52039  0.53944  1.0000
  C  Sn93      1.0  0.61554  0.70530  0.05866  1.0000
  C   C221      1.0  0.54219  0.65459  0.04842  1.0000
  C  Sn94      1.0  0.50997  0.66716  0.01505  1.0000
  C  Sn95      1.0  0.54350  0.72394  0.99140  1.0000
  C   C222      1.0  0.62526  0.78242  0.00164  1.0000
  C  Sn96      1.0  0.65753  0.76990  0.03501  1.0000
  O  Te93      1.0  0.64663  0.69161  0.09215  1.0000
  O  Te94      1.0  0.43653  0.61567  0.00541  1.0000
  O  Te95      1.0  0.51235  0.73760  0.95789  1.0000
  O  Te96      1.0  0.73092  0.82134  0.04465  1.0000
  Mg  Mg47      1.0  0.41037  0.65108  0.95693  1.0000
  Mg  Mg48      1.0  0.74870  0.77815  0.09311  1.0000
