data_image0
_chemical_formula_structural       Si6C6H6N6C6H6N6C6H6N6C6H6N6C8Sn2C2HTe2HMgC2Sn2C2HTe2HMgC2Sn2C2HTe2HMgC2Sn2C2HTe2HMgC2Sn2C2HTe2HMgC2Sn2C2HTe2HMgC2Sn2C2HTe2HMgC2Sn2C2HTe2HMgC2Sn2C2HTe2HMgC2Sn2C2HTe2HMgC2Sn2C2HTe2HMgC2Sn2C2HTe2HMgC2Sn2C2HTe2HMgC2Sn2C2HTe2HMgC2Sn2C2HTe2HMgC2Sn2C2HTe2HMgC2Sn2C2HTe2HMgC2Sn2C2HTe2HMgC2Sn2C2HTe2HMgC2Sn2C2HTe2HMgC2Sn2C2HTe2HMgC2Sn2C2HTe2HMgC2Sn2C2HTe2HMgC2Sn2C2HTe2HMgC2Sn2C2HTe2HMgC2Sn2C2HTe2HMgC2Sn2C2HTe2HMgC2Sn2C2HTe2HMgC2Sn2C2HTe2HMgC2Sn2C2HTe2HMgC2Sn2C2HTe2HMgC2Sn2C2HTe2HMgC2Sn2C2HTe2HMgC2Sn2C2HTe2HMgC2Sn2C2HTe2HMgC2Sn2C2HTe2HMgC2Sn2C2HTe2HMgC2Sn2C2HTe2HMgC2Sn2C2HTe2HMgC2Sn2C2HTe2HMgC2Sn2C2HTe2HMgC2Sn2C2HTe2HMgC2Sn2C2HTe2HMgC2Sn2C2HTe2HMgC2Sn2C2HTe2HMgC2Sn2C2HTe2HMgC2Sn2C2HTe2HMgC2Sn2C2HTe2HMg
_chemical_formula_sum              "Si6 C222 H120 N24 Sn96 Te96 Mg48"
_cell_length_a       20.7766
_cell_length_b       20.7243
_cell_length_c       33.6119
_cell_angle_alpha    89.8731
_cell_angle_beta     89.8384
_cell_angle_gamma    119.908

_symmetry_space_group_name_H-M    'P1'
_space_group_IT_number       1

loop_
  _space_group_symop_operation_xyz
  'x, y, z'

loop_
  _atom_site_type_symbol
  _atom_site_label
  _atom_site_symmetry_multiplicity
  _atom_site_fract_x
  _atom_site_fract_y
  _atom_site_fract_z
  _atom_site_occupancy
  Si  Si1       1.0  0.86752  0.66327  0.45767  1.0000
  Si  Si2       1.0  0.33361  0.20062  0.12109  1.0000
  Si  Si3       1.0  0.79520  0.13241  0.78868  1.0000
  Si  Si4       1.0  0.13230  0.33454  0.95722  1.0000
  Si  Si5       1.0  0.66749  0.79985  0.62173  1.0000
  Si  Si6       1.0  0.20237  0.86447  0.28791  1.0000
  C   C1        1.0  0.54953  0.52395  0.39038  1.0000
  C   C2        1.0  0.47772  0.02082  0.06128  1.0000
  C   C3        1.0  0.97758  0.45517  0.72611  1.0000
  C   C4        1.0  0.45489  0.48032  0.89595  1.0000
  C   C5        1.0  0.52277  0.97766  0.55939  1.0000
  C   C6        1.0  0.01829  0.54159  0.22834  1.0000
  H   H1        1.0  0.53786  0.56209  0.37303  1.0000
  H   H2        1.0  0.43938  0.96715  0.04736  1.0000
  H   H3        1.0  0.02990  0.46849  0.71101  1.0000
  H   H4        1.0  0.46986  0.44223  0.88121  1.0000
  H   H5        1.0  0.56107  0.03067  0.54457  1.0000
  H   H6        1.0  0.96432  0.52673  0.21504  1.0000
  N   N1        1.0  0.50082  0.45445  0.39439  1.0000
  N   N2        1.0  0.54837  0.04608  0.06170  1.0000
  N   N3        1.0  0.95489  0.50276  0.72800  1.0000
  N   N4        1.0  0.50088  0.55095  0.89717  1.0000
  N   N5        1.0  0.45221  0.95319  0.56062  1.0000
  N   N6        1.0  0.04388  0.49624  0.22780  1.0000
  C   C7        1.0  0.00781  0.48476  0.38981  1.0000
  C   C8        1.0  0.51166  0.52177  0.05632  1.0000
  C   C9        1.0  0.47743  0.99014  0.72175  1.0000
  C   C10       1.0  0.99155  0.51613  0.89445  1.0000
  C   C11       1.0  0.48668  0.48209  0.55255  1.0000
  C   C12       1.0  0.52227  0.00027  0.22192  1.0000
  H   H7        1.0  0.96773  0.42915  0.37849  1.0000
  H   H8        1.0  0.56662  0.53646  0.04423  1.0000
  H   H9        1.0  0.46150  0.03021  0.71061  1.0000
  H   H10       1.0  0.03167  0.57158  0.88266  1.0000
  H   H11       1.0  0.43102  0.46753  0.54184  1.0000
  H   H12       1.0  0.53783  0.95968  0.21121  1.0000
  N   N7        1.0  0.07842  0.51119  0.38613  1.0000
  N   N8        1.0  0.48660  0.56747  0.05386  1.0000
  N   N9        1.0  0.43326  0.91937  0.71849  1.0000
  N   N10       1.0  0.92090  0.48991  0.89144  1.0000
  N   N11       1.0  0.51220  0.43706  0.54832  1.0000
  N   N12       1.0  0.56650  0.07102  0.21806  1.0000
  C   C13       1.0  0.05422  0.98335  0.39156  1.0000
  C   C14       1.0  0.01759  0.07079  0.05312  1.0000
  C   C15       1.0  0.92663  0.94741  0.71817  1.0000
  C   C16       1.0  0.94311  0.01675  0.89019  1.0000
  C   C17       1.0  0.98696  0.93100  0.55550  1.0000
  C   C18       1.0  0.07342  0.05433  0.22157  1.0000
  H   H13       1.0  0.08608  0.98800  0.36444  1.0000
  H   H14       1.0  0.01216  0.10167  0.02787  1.0000
  H   H15       1.0  0.89971  0.91681  0.69081  1.0000
  H   H16       1.0  0.90704  0.01141  0.86499  1.0000
  H   H17       1.0  0.99170  0.90108  0.52964  1.0000
  H   H18       1.0  0.10332  0.08893  0.19559  1.0000
  N   N13       1.0  0.05629  0.04108  0.40750  1.0000
  N   N14       1.0  0.96108  0.01258  0.06809  1.0000
  N   N15       1.0  0.98208  0.94512  0.73391  1.0000
  N   N16       1.0  0.94463  0.95992  0.90497  1.0000
  N   N17       1.0  0.04425  0.98834  0.57023  1.0000
  N   N18       1.0  0.01648  0.05477  0.23682  1.0000
  C   C19       1.0  0.86580  0.70515  0.63963  1.0000
  C   C20       1.0  0.29391  0.15815  0.30291  1.0000
  C   C21       1.0  0.83595  0.13519  0.97056  1.0000
  C   C22       1.0  0.13908  0.29781  0.13940  1.0000
  C   C23       1.0  0.70401  0.83856  0.80407  1.0000
  C   C24       1.0  0.16366  0.86337  0.47012  1.0000
  H   H19       1.0  0.91620  0.75222  0.65216  1.0000
  H   H20       1.0  0.24679  0.16122  0.31587  1.0000
  H   H21       1.0  0.83168  0.08415  0.98318  1.0000
  H   H22       1.0  0.08878  0.25104  0.15250  1.0000
  H   H23       1.0  0.75084  0.83478  0.81669  1.0000
  H   H24       1.0  0.17166  0.91564  0.48296  1.0000
  N   N19       1.0  0.80841  0.66175  0.66109  1.0000
  N   N20       1.0  0.33821  0.14479  0.32384  1.0000
  N   N21       1.0  0.85130  0.19309  0.99178  1.0000
  N   N22       1.0  0.19676  0.34138  0.16037  1.0000
  N   N23       1.0  0.65979  0.85136  0.82555  1.0000
  N   N24       1.0  0.14567  0.80467  0.49144  1.0000
  C   C25       1.0  0.79701  0.66768  0.83308  1.0000
  C   C26       1.0  0.33527  0.13220  0.49571  1.0000
  C   C27       1.0  0.87043  0.20040  0.16345  1.0000
  C   C28       1.0  0.20361  0.33206  0.33231  1.0000
  C   C29       1.0  0.66866  0.86974  0.99742  1.0000
  C   C30       1.0  0.13151  0.79977  0.66343  1.0000
  C   C31       1.0  0.73690  0.66172  0.40530  1.0000
  C   C32       1.0  0.76494  0.63231  0.43333  1.0000
  C  Sn1       1.0  0.72043  0.56001  0.44789  1.0000
  C  Sn2       1.0  0.64650  0.51648  0.43406  1.0000
  C   C33       1.0  0.61898  0.54638  0.40599  1.0000
  C   C34       1.0  0.66400  0.61880  0.39164  1.0000
  H   H25       1.0  0.77174  0.71773  0.39417  1.0000
  O  Te1       1.0  0.74931  0.53151  0.47589  1.0000
  O  Te2       1.0  0.60081  0.44405  0.44810  1.0000
  H   H26       1.0  0.64229  0.64153  0.36991  1.0000
  Mg  Mg1       1.0  0.66541  0.42991  0.48612  1.0000
  C   C35       1.0  0.46865  0.16450  0.11366  1.0000
  C   C36       1.0  0.39864  0.15493  0.10510  1.0000
  C  Sn3       1.0  0.34794  0.09400  0.08273  1.0000
  C  Sn4       1.0  0.36784  0.04174  0.06872  1.0000
  C   C37       1.0  0.43800  0.05178  0.07747  1.0000
  C   C38       1.0  0.48832  0.11297  0.09986  1.0000
  H   H27       1.0  0.50758  0.21181  0.13101  1.0000
  O  Te3       1.0  0.27824  0.08530  0.07444  1.0000
  O  Te4       1.0  0.81558  0.98032  0.04631  1.0000
  H   H28       1.0  0.54250  0.12033  0.10651  1.0000
  Mg  Mg2       1.0  0.72717  0.99261  0.04276  1.0000
  C   C39       1.0  0.95459  0.30853  0.73475  1.0000
  C   C40       1.0  0.93982  0.36714  0.73797  1.0000
  C  Sn5       1.0  0.87880  0.35817  0.76005  1.0000
  C  Sn6       1.0  0.83180  0.28920  0.77924  1.0000
  C   C41       1.0  0.84708  0.23093  0.77586  1.0000
  C   C42       1.0  0.90828  0.24050  0.75368  1.0000
  H   H29       1.0  0.00196  0.31594  0.71760  1.0000
  O  Te5       1.0  0.86483  0.41729  0.76295  1.0000
  O  Te6       1.0  0.77045  0.27874  0.80151  1.0000
  H   H30       1.0  0.91973  0.19513  0.75121  1.0000
  Mg  Mg3       1.0  0.77444  0.37590  0.79665  1.0000
  C   C43       1.0  0.30222  0.46889  0.94953  1.0000
  C   C44       1.0  0.24222  0.39899  0.94026  1.0000
  C  Sn7       1.0  0.25296  0.34925  0.91708  1.0000
  C  Sn8       1.0  0.32519  0.37001  0.90296  1.0000
  C   C45       1.0  0.38486  0.44005  0.91242  1.0000
  C   C46       1.0  0.37348  0.48940  0.93563  1.0000
  H   H31       1.0  0.29343  0.50707  0.96750  1.0000
  O  Te7       1.0  0.19240  0.27964  0.90808  1.0000
  O  Te8       1.0  0.33750  0.32136  0.87975  1.0000
  H   H32       1.0  0.41996  0.54350  0.94283  1.0000
  Mg  Mg4       1.0  0.23728  0.23270  0.87544  1.0000
  C   C47       1.0  0.53278  0.83582  0.61360  1.0000
  C   C48       1.0  0.60371  0.84680  0.60594  1.0000
  C  Sn9       1.0  0.65449  0.90787  0.58333  1.0000
  C  Sn10      1.0  0.63374  0.95881  0.56817  1.0000
  C   C49       1.0  0.56266  0.94736  0.57603  1.0000
  C   C50       1.0  0.51227  0.88605  0.59867  1.0000
  H   H33       1.0  0.49380  0.78841  0.63114  1.0000
  O  Te9       1.0  0.72512  0.91800  0.57595  1.0000
  O  Te10      1.0  0.18606  0.02033  0.54551  1.0000
  H   H34       1.0  0.45737  0.87759  0.60462  1.0000
  Mg  Mg5       1.0  0.27589  0.01024  0.54349  1.0000
  C   C51       1.0  0.06367  0.72796  0.24292  1.0000
  C   C52       1.0  0.12678  0.76014  0.26695  1.0000
  C  Sn11      1.0  0.15928  0.71848  0.27920  1.0000
  C  Sn12      1.0  0.12791  0.64323  0.26709  1.0000
  C   C53       1.0  0.06480  0.61157  0.24302  1.0000
  C   C54       1.0  0.03271  0.65375  0.23095  1.0000
  H   H35       1.0  0.03887  0.76061  0.23356  1.0000
  O  Te11      1.0  0.22230  0.75149  0.30322  1.0000
  O  Te12      1.0  0.15928  0.60033  0.27888  1.0000
  H   H36       1.0  0.98388  0.62884  0.21232  1.0000
  Mg  Mg6       1.0  0.24490  0.67023  0.31160  1.0000
  C   C55       1.0  0.37215  0.46707  0.38370  1.0000
  C   C56       1.0  0.41981  0.43774  0.38212  1.0000
  C  Sn13      1.0  0.39969  0.37258  0.36085  1.0000
  C  Sn14      1.0  0.33055  0.33625  0.34082  1.0000
  C   C57       1.0  0.28328  0.36607  0.34256  1.0000
  C   C58       1.0  0.30396  0.43129  0.36393  1.0000
  H   H37       1.0  0.38816  0.51755  0.40022  1.0000
  O  Te13      1.0  0.44795  0.34402  0.35960  1.0000
  O  Te14      1.0  0.30906  0.27107  0.31934  1.0000
  H   H38       1.0  0.26707  0.45401  0.36513  1.0000
  Mg  Mg7       1.0  0.39386  0.25377  0.32644  1.0000
  C   C59       1.0  0.65015  0.03171  0.01363  1.0000
  C   C60       1.0  0.58941  0.01037  0.03903  1.0000
  C  Sn15      1.0  0.04742  0.93759  0.05373  1.0000
  C  Sn16      1.0  0.06943  0.88534  0.04274  1.0000
  C   C61       1.0  0.13031  0.90725  0.01733  1.0000
  C   C62       1.0  0.16928  0.98022  0.00279  1.0000
  H   H39       1.0  0.68033  0.08817  0.00240  1.0000
  O  Te15      1.0  0.98684  0.91719  0.07906  1.0000
  O  Te16      1.0  0.03111  0.81225  0.05700  1.0000
  H   H40       1.0  0.20788  0.98892  0.98315  1.0000
  Mg  Mg8       1.0  0.95226  0.81110  0.09073  1.0000
  C   C63       1.0  0.99357  0.65907  0.67288  1.0000
  C   C64       1.0  0.06825  0.71106  0.67943  1.0000
  C  Sn17      1.0  0.11183  0.69260  0.70320  1.0000
  C  Sn18      1.0  0.07988  0.62072  0.72068  1.0000
  C   C65       1.0  0.00512  0.56909  0.71393  1.0000
  C   C66       1.0  0.96202  0.58815  0.69011  1.0000
  H   H41       1.0  0.96022  0.67380  0.65443  1.0000
  O  Te17      1.0  0.18635  0.74522  0.70944  1.0000
  O  Te18      1.0  0.12217  0.60080  0.74455  1.0000
  H   H42       1.0  0.90421  0.54788  0.68502  1.0000
  Mg  Mg9       1.0  0.22123  0.69176  0.74428  1.0000
  C   C67       1.0  0.61900  0.65324  0.85008  1.0000
  C   C68       1.0  0.57768  0.59118  0.87446  1.0000
  C  Sn19      1.0  0.60882  0.54923  0.88830  1.0000
  C  Sn20      1.0  0.68273  0.56993  0.87749  1.0000
  C   C69       1.0  0.72363  0.63214  0.85310  1.0000
  C   C70       1.0  0.69191  0.67371  0.83941  1.0000
  H   H43       1.0  0.59448  0.68543  0.83950  1.0000
  O  Te19      1.0  0.56675  0.48738  0.91262  1.0000
  O  Te20      1.0  0.71523  0.52900  0.89091  1.0000
  H   H44       1.0  0.72394  0.72178  0.82055  1.0000
  Mg  Mg10      1.0  0.63549  0.44924  0.92341  1.0000
  C   C71       1.0  0.83560  0.99399  0.50375  1.0000
  C   C72       1.0  0.36097  0.06878  0.51074  1.0000
  C  Sn21      1.0  0.42116  0.11128  0.53566  1.0000
  C  Sn22      1.0  0.45920  0.07815  0.55387  1.0000
  C   C73       1.0  0.43607  0.00330  0.54667  1.0000
  C   C74       1.0  0.87311  0.96127  0.52169  1.0000
  H   H45       1.0  0.78897  0.96148  0.48440  1.0000
  O  Te21      1.0  0.44311  0.18592  0.54233  1.0000
  O  Te22      1.0  0.51955  0.11935  0.57890  1.0000
  H   H46       1.0  0.85556  0.90338  0.51626  1.0000
  Mg  Mg11      1.0  0.52851  0.21906  0.57880  1.0000
  C   C75       1.0  0.88181  0.32452  0.21262  1.0000
  C   C76       1.0  0.90214  0.28775  0.18484  1.0000
  C  Sn23      1.0  0.97561  0.32003  0.17162  1.0000
  C  Sn24      1.0  0.02962  0.39041  0.18655  1.0000
  C   C77       1.0  0.00874  0.42672  0.21436  1.0000
  C   C78       1.0  0.93506  0.39393  0.22738  1.0000
  H   H47       1.0  0.82481  0.29914  0.22271  1.0000
  O  Te23      1.0  0.99496  0.28255  0.14383  1.0000
  O  Te24      1.0  0.10346  0.42393  0.17385  1.0000
  H   H48       1.0  0.91935  0.42239  0.24891  1.0000
  Mg  Mg12      1.0  0.10264  0.35097  0.13563  1.0000
  C   C79       1.0  0.86489  0.52297  0.41372  1.0000
  C   C80       1.0  0.89691  0.58711  0.43710  1.0000
  C  Sn25      1.0  0.97277  0.62342  0.44555  1.0000
  C  Sn26      1.0  0.01727  0.59487  0.43026  1.0000
  C   C81       1.0  0.98472  0.53070  0.40687  1.0000
  C   C82       1.0  0.90874  0.49479  0.39861  1.0000
  H   H49       1.0  0.80612  0.49521  0.40731  1.0000
  O  Te25      1.0  0.00386  0.68742  0.46898  1.0000
  O  Te26      1.0  0.09324  0.63007  0.43824  1.0000
  H   H50       1.0  0.88398  0.44516  0.38048  1.0000
  Mg  Mg13      1.0  0.10994  0.71562  0.47162  1.0000
  C   C83       1.0  0.49312  0.37811  0.06805  1.0000
  C   C84       1.0  0.47666  0.43565  0.07054  1.0000
  C  Sn27      1.0  0.41495  0.42578  0.09228  1.0000
  C  Sn28      1.0  0.36898  0.35697  0.11186  1.0000
  C   C85       1.0  0.38595  0.29977  0.10922  1.0000
  C   C86       1.0  0.44783  0.31024  0.08738  1.0000
  H   H51       1.0  0.54102  0.38622  0.05118  1.0000
  O  Te27      1.0  0.39928  0.48384  0.09444  1.0000
  O  Te28      1.0  0.30697  0.34561  0.13380  1.0000
  H   H52       1.0  0.46059  0.26569  0.08548  1.0000
  Mg  Mg14      1.0  0.30858  0.44150  0.12794  1.0000
  C   C87       1.0  0.61765  0.11688  0.73728  1.0000
  C   C88       1.0  0.56243  0.04191  0.73700  1.0000
  C  Sn29      1.0  0.07123  0.98868  0.75627  1.0000
  C  Sn30      1.0  0.64191  0.01110  0.77617  1.0000
  C   C89       1.0  0.69678  0.08625  0.77630  1.0000
  C   C90       1.0  0.68476  0.13904  0.75691  1.0000
  H   H53       1.0  0.60834  0.15774  0.72230  1.0000
  O  Te29      1.0  0.01548  0.91401  0.75569  1.0000
  O  Te30      1.0  0.15215  0.95906  0.79568  1.0000
  H   H54       1.0  0.72750  0.19709  0.75715  1.0000
  Mg  Mg15      1.0  0.05925  0.86388  0.78653  1.0000
  C   C91       1.0  0.99840  0.37176  0.94875  1.0000
  C   C92       1.0  0.06981  0.38323  0.94217  1.0000
  C  Sn31      1.0  0.12193  0.44553  0.92082  1.0000
  C  Sn32      1.0  0.10203  0.49724  0.90584  1.0000
  C   C93       1.0  0.03047  0.48529  0.91260  1.0000
  C   C94       1.0  0.97874  0.42274  0.93399  1.0000
  H   H55       1.0  0.95838  0.32339  0.96532  1.0000
  O  Te31      1.0  0.19302  0.45613  0.91451  1.0000
  O  Te32      1.0  0.15305  0.56000  0.88442  1.0000
  H   H56       1.0  0.92347  0.41391  0.93911  1.0000
  Mg  Mg16      1.0  0.24305  0.55012  0.88355  1.0000
  C   C95       1.0  0.63208  0.63003  0.60716  1.0000
  C   C96       1.0  0.61812  0.68925  0.60454  1.0000
  C  Sn33      1.0  0.55449  0.67995  0.58535  1.0000
  C  Sn34      1.0  0.50401  0.61000  0.56850  1.0000
  C   C97       1.0  0.51845  0.55109  0.57130  1.0000
  C   C98       1.0  0.58230  0.56101  0.59056  1.0000
  H   H57       1.0  0.68146  0.63768  0.62207  1.0000
  O  Te33      1.0  0.54140  0.73971  0.58300  1.0000
  O  Te34      1.0  0.43997  0.59917  0.54917  1.0000
  H   H58       1.0  0.59308  0.51513  0.59260  1.0000
  Mg  Mg17      1.0  0.44647  0.69750  0.55364  1.0000
  C   C99       1.0  0.33879  0.85914  0.24321  1.0000
  C   C100      1.0  0.30663  0.89193  0.26611  1.0000
  C  Sn35      1.0  0.34705  0.96767  0.27523  1.0000
  C  Sn36      1.0  0.92367  0.01126  0.26110  1.0000
  C   C101      1.0  0.45268  0.97794  0.23818  1.0000
  C   C102      1.0  0.41174  0.90210  0.22925  1.0000
  H   H59       1.0  0.30711  0.80047  0.23628  1.0000
  O  Te35      1.0  0.81673  0.99953  0.29816  1.0000
  O  Te36      1.0  0.96532  0.08708  0.26975  1.0000
  H   H60       1.0  0.43664  0.87674  0.21150  1.0000
  Mg  Mg18      1.0  0.89601  0.10506  0.30207  1.0000
  C   C103      1.0  0.07428  0.37254  0.38570  1.0000
  C   C104      1.0  0.09691  0.44670  0.37662  1.0000
  C  Sn37      1.0  0.15341  0.48566  0.34876  1.0000
  C  Sn38      1.0  0.18776  0.44955  0.32968  1.0000
  C   C105      1.0  0.16468  0.37532  0.33895  1.0000
  C   C106      1.0  0.10811  0.33687  0.36688  1.0000
  H   H61       1.0  0.03048  0.34277  0.40730  1.0000
  O  Te37      1.0  0.17537  0.55974  0.34005  1.0000
  O  Te38      1.0  0.24434  0.48717  0.30171  1.0000
  H   H62       1.0  0.09056  0.27943  0.37389  1.0000
  Mg  Mg19      1.0  0.25490  0.58751  0.29985  1.0000
  C   C107      1.0  0.62780  0.69858  0.04998  1.0000
  C   C108      1.0  0.55234  0.64960  0.04342  1.0000
  C  Sn39      1.0  0.51241  0.66924  0.01751  1.0000
  C  Sn40      1.0  0.54041  0.73144  0.99783  1.0000
  C   C109      1.0  0.62438  0.78784  0.00457  1.0000
  C   C110      1.0  0.66380  0.76762  0.03057  1.0000
  H   H63       1.0  0.65831  0.68293  0.07008  1.0000
  O  Te39      1.0  0.43704  0.61966  0.01130  1.0000
  O  Te40      1.0  0.50184  0.75247  0.97176  1.0000
  H   H64       1.0  0.72223  0.80554  0.03563  1.0000
  Mg  Mg20      1.0  0.39988  0.66579  0.97304  1.0000
  C   C111      1.0  0.27772  0.81305  0.66022  1.0000
  C   C112      1.0  0.22350  0.82935  0.67328  1.0000
  C  Sn41      1.0  0.24030  0.88336  0.70243  1.0000
  C  Sn42      1.0  0.31277  0.92168  0.71875  1.0000
  C   C113      1.0  0.36664  0.90500  0.70548  1.0000
  C   C114      1.0  0.34922  0.85084  0.67630  1.0000
  H   H65       1.0  0.26427  0.77117  0.63764  1.0000
  O  Te41      1.0  0.18546  0.89894  0.71514  1.0000
  O  Te42      1.0  0.33106  0.97594  0.74791  1.0000
  H   H66       1.0  0.39123  0.83826  0.66618  1.0000
  Mg  Mg21      1.0  0.23731  0.97747  0.75554  1.0000
  C   C115      1.0  0.82229  0.50842  0.84266  1.0000
  C   C116      1.0  0.88235  0.52821  0.86809  1.0000
  C  Sn43      1.0  0.91970  0.59928  0.88477  1.0000
  C  Sn44      1.0  0.89636  0.65136  0.87578  1.0000
  C   C117      1.0  0.83618  0.63100  0.85033  1.0000
  C   C118      1.0  0.79921  0.55974  0.83379  1.0000
  H   H67       1.0  0.79366  0.45327  0.82988  1.0000
  O  Te43      1.0  0.97962  0.61815  0.91011  1.0000
  O  Te44      1.0  0.93269  0.72276  0.89205  1.0000
  H   H68       1.0  0.75268  0.54442  0.81412  1.0000
  Mg  Mg22      1.0  0.01135  0.72222  0.92493  1.0000
  C   C119      1.0  0.49469  0.31656  0.50298  1.0000
  C   C120      1.0  0.47352  0.35934  0.52571  1.0000
  C  Sn45      1.0  0.40163  0.32752  0.54129  1.0000
  C  Sn46      1.0  0.35010  0.25144  0.53393  1.0000
  C   C121      1.0  0.37183  0.20910  0.51118  1.0000
  C   C122      1.0  0.44390  0.24151  0.49572  1.0000
  H   H69       1.0  0.55046  0.34162  0.49104  1.0000
  O  Te45      1.0  0.38139  0.37106  0.56392  1.0000
  O  Te46      1.0  0.27789  0.21822  0.54915  1.0000
  H   H70       1.0  0.46029  0.20837  0.47814  1.0000
  Mg  Mg23      1.0  0.27663  0.30057  0.57824  1.0000
  C   C123      1.0  0.68486  0.17160  0.17030  1.0000
  C   C124      1.0  0.64399  0.11046  0.19534  1.0000
  C  Sn47      1.0  0.67760  0.07341  0.21269  1.0000
  C  Sn48      1.0  0.75354  0.09816  0.20478  1.0000
  C   C125      1.0  0.79395  0.15941  0.17971  1.0000
  C   C126      1.0  0.75977  0.19606  0.16249  1.0000
  H   H71       1.0  0.65843  0.19998  0.15700  1.0000
  O  Te47      1.0  0.63595  0.01241  0.23762  1.0000
  O  Te48      1.0  0.78851  0.06217  0.22173  1.0000
  H   H72       1.0  0.79144  0.24342  0.14313  1.0000
  Mg  Mg24      1.0  0.20575  0.98166  0.25369  1.0000
  C   C127      1.0  0.01463  0.83093  0.39182  1.0000
  C   C128      1.0  0.00998  0.89401  0.40154  1.0000
  C  Sn49      1.0  0.96147  0.89044  0.43145  1.0000
  C  Sn50      1.0  0.91687  0.82238  0.45199  1.0000
  C   C129      1.0  0.92197  0.75959  0.44207  1.0000
  C   C130      1.0  0.97068  0.76378  0.41207  1.0000
  H   H73       1.0  0.05234  0.83417  0.36863  1.0000
  O  Te49      1.0  0.95749  0.95399  0.44077  1.0000
  O  Te50      1.0  0.86794  0.81726  0.48202  1.0000
  H   H74       1.0  0.97431  0.71494  0.40458  1.0000
  Mg  Mg25      1.0  0.88237  0.91913  0.48396  1.0000
  C   C131      1.0  0.12157  0.05726  0.10401  1.0000
  C   C132      1.0  0.09356  0.08929  0.07760  1.0000
  C  Sn51      1.0  0.14088  0.15853  0.06025  1.0000
  C  Sn52      1.0  0.21764  0.19626  0.06956  1.0000
  C   C133      1.0  0.24513  0.16372  0.09599  1.0000
  C   C134      1.0  0.19728  0.09442  0.11320  1.0000
  H   H75       1.0  0.08457  0.00362  0.11730  1.0000
  O  Te51      1.0  0.11197  0.18975  0.03394  1.0000
  O  Te52      1.0  0.26617  0.26551  0.05263  1.0000
  H   H76       1.0  0.21900  0.06961  0.13362  1.0000
  Mg  Mg26      1.0  0.20032  0.28526  0.01850  1.0000
  C   C135      1.0  0.93282  0.05509  0.77461  1.0000
  C   C136      1.0  0.90421  0.00003  0.74537  1.0000
  C  Sn53      1.0  0.33634  0.98387  0.72541  1.0000
  C  Sn54      1.0  0.80185  0.02367  0.73497  1.0000
  C   C137      1.0  0.83095  0.07869  0.76424  1.0000
  C   C138      1.0  0.89625  0.09439  0.78404  1.0000
  H   H77       1.0  0.98336  0.06728  0.78991  1.0000
  O  Te53      1.0  0.30850  0.92868  0.69629  1.0000
  O  Te54      1.0  0.73658  0.00866  0.71548  1.0000
  H   H78       1.0  0.91841  0.13706  0.80665  1.0000
  Mg  Mg27      1.0  0.21781  0.92840  0.67801  1.0000
  C   C139      1.0  0.00855  0.20965  0.89904  1.0000
  C   C140      1.0  0.06029  0.23500  0.92990  1.0000
  C  Sn55      1.0  0.07962  0.18665  0.94841  1.0000
  C  Sn56      1.0  0.04645  0.11157  0.93572  1.0000
  C   C141      1.0  0.99478  0.08677  0.90480  1.0000
  C   C142      1.0  0.97583  0.13562  0.88650  1.0000
  H   H79       1.0  0.99391  0.24745  0.88486  1.0000
  O  Te55      1.0  0.13140  0.21288  0.97920  1.0000
  O  Te56      1.0  0.06478  0.06207  0.95369  1.0000
  H   H80       1.0  0.93580  0.11599  0.86259  1.0000
  Mg  Mg28      1.0  0.13827  0.12413  0.99441  1.0000
  C   C143      1.0  0.84259  0.92298  0.61639  1.0000
  C   C144      1.0  0.77781  0.85980  0.60381  1.0000
  C  Sn57      1.0  0.78123  0.81340  0.57480  1.0000
  C  Sn58      1.0  0.85088  0.83070  0.55815  1.0000
  C   C145      1.0  0.91538  0.89400  0.57096  1.0000
  C   C146      1.0  0.91131  0.94006  0.59999  1.0000
  H   H81       1.0  0.83946  0.95860  0.63886  1.0000
  O  Te57      1.0  0.71596  0.75052  0.56256  1.0000
  O  Te58      1.0  0.85590  0.78527  0.52913  1.0000
  H   H82       1.0  0.96148  0.98895  0.60975  1.0000
  Mg  Mg29      1.0  0.75139  0.70579  0.52218  1.0000
  C   C147      1.0  0.19886  0.98685  0.22863  1.0000
  C   C148      1.0  0.17457  0.93643  0.26040  1.0000
  C  Sn59      1.0  0.10893  0.91886  0.28060  1.0000
  C  Sn60      1.0  0.06694  0.95248  0.26870  1.0000
  C   C149      1.0  0.59433  0.00282  0.23687  1.0000
  C   C150      1.0  0.66011  0.02001  0.21687  1.0000
  H   H83       1.0  0.75237  0.00013  0.21314  1.0000
  O  Te59      1.0  0.08547  0.86839  0.31228  1.0000
  O  Te60      1.0  0.00112  0.93590  0.28837  1.0000
  H   H84       1.0  0.67887  0.05902  0.19226  1.0000
  Mg  Mg30      1.0  0.99211  0.86371  0.32977  1.0000
  C   C151      1.0  0.16178  0.23344  0.40101  1.0000
  C   C152      1.0  0.17135  0.25130  0.36050  1.0000
  C  Sn61      1.0  0.13654  0.19547  0.33203  1.0000
  C  Sn62      1.0  0.09131  0.12042  0.34443  1.0000
  C   C153      1.0  0.08204  0.10314  0.38503  1.0000
  C   C154      1.0  0.11715  0.15944  0.41326  1.0000
  H   H85       1.0  0.18891  0.27700  0.42286  1.0000
  O  Te61      1.0  0.14672  0.21428  0.29168  1.0000
  O  Te62      1.0  0.05584  0.06353  0.31661  1.0000
  H   H86       1.0  0.10969  0.14560  0.44462  1.0000
  Mg  Mg31      1.0  0.08680  0.11706  0.26505  1.0000
  C   C155      1.0  0.83360  0.95191  0.98933  1.0000
  C   C156      1.0  0.77234  0.92273  0.00771  1.0000
  C  Sn63      1.0  0.76638  0.92246  0.04913  1.0000
  C  Sn64      1.0  0.83152  0.95998  0.07250  1.0000
  C   C157      1.0  0.90101  0.99687  0.05383  1.0000
  C   C158      1.0  0.90633  0.99678  0.01236  1.0000
  H   H87       1.0  0.83773  0.95188  0.95724  1.0000
  O  Te63      1.0  0.69629  0.88520  0.06701  1.0000
  O  Te64      1.0  0.82716  0.96061  0.11396  1.0000
  H   H88       1.0  0.45451  0.01765  0.99814  1.0000
  Mg  Mg32      1.0  0.71904  0.90188  0.12450  1.0000
  C   C159      1.0  0.03873  0.91142  0.66445  1.0000
  C   C160      1.0  0.01356  0.90738  0.70348  1.0000
  C  Sn65      1.0  0.02963  0.86943  0.73266  1.0000
  C  Sn66      1.0  0.07171  0.83497  0.72249  1.0000
  C   C161      1.0  0.09668  0.83938  0.68337  1.0000
  C   C162      1.0  0.08026  0.87747  0.65441  1.0000
  H   H89       1.0  0.02606  0.94093  0.64205  1.0000
  O  Te65      1.0  0.00402  0.86590  0.77150  1.0000
  O  Te66      1.0  0.08859  0.79672  0.75107  1.0000
  H   H90       1.0  0.09980  0.88064  0.62420  1.0000
  Mg  Mg33      1.0  0.04129  0.80733  0.79994  1.0000
  C   C163      1.0  0.88242  0.83317  0.82566  1.0000
  C   C164      1.0  0.84765  0.76297  0.84372  1.0000
  C  Sn67      1.0  0.83904  0.75640  0.88503  1.0000
  C  Sn68      1.0  0.86577  0.82141  0.90861  1.0000
  C   C165      1.0  0.90042  0.89139  0.89025  1.0000
  C   C166      1.0  0.90877  0.89733  0.84889  1.0000
  H   H91       1.0  0.88884  0.83777  0.79365  1.0000
  O  Te67      1.0  0.80420  0.68583  0.90260  1.0000
  O  Te68      1.0  0.85786  0.81644  0.94996  1.0000
  H   H92       1.0  0.93564  0.95169  0.83491  1.0000
  Mg  Mg34      1.0  0.80654  0.70783  0.96007  1.0000
  C   C167      1.0  0.13147  0.03319  0.49948  1.0000
  C   C168      1.0  0.11270  0.01489  0.53950  1.0000
  C  Sn69      1.0  0.16823  0.03762  0.56823  1.0000
  C  Sn70      1.0  0.24392  0.07947  0.55659  1.0000
  C   C169      1.0  0.26212  0.09753  0.51647  1.0000
  C   C170      1.0  0.20611  0.07448  0.48797  1.0000
  H   H93       1.0  0.08813  0.01539  0.47743  1.0000
  O  Te69      1.0  0.14850  0.01884  0.60809  1.0000
  O  Te70      1.0  0.30054  0.10293  0.58469  1.0000
  H   H94       1.0  0.22066  0.08870  0.45699  1.0000
  Mg  Mg35      1.0  0.24568  0.06355  0.63535  1.0000
  C   C171      1.0  0.95001  0.14294  0.24140  1.0000
  C   C172      1.0  0.97386  0.09701  0.22429  1.0000
  C  Sn71      1.0  0.97080  0.08701  0.18311  1.0000
  C  Sn72      1.0  0.94336  0.12376  0.15867  1.0000
  C   C173      1.0  0.91969  0.16964  0.17606  1.0000
  C   C174      1.0  0.92296  0.17923  0.21731  1.0000
  H   H95       1.0  0.95259  0.15040  0.27331  1.0000
  O  Te71      1.0  0.99482  0.04091  0.16651  1.0000
  O  Te72      1.0  0.93972  0.11477  0.11742  1.0000
  H   H96       1.0  0.90454  0.21484  0.23054  1.0000
  Mg  Mg36      1.0  0.97894  0.04623  0.10879  1.0000
  C   C175      1.0  0.79101  0.62901  0.54535  1.0000
  C   C176      1.0  0.84858  0.66719  0.51792  1.0000
  C  Sn73      1.0  0.92006  0.71773  0.53105  1.0000
  C  Sn74      1.0  0.93400  0.73015  0.57242  1.0000
  C   C177      1.0  0.87605  0.69164  0.59962  1.0000
  C   C178      1.0  0.80472  0.64121  0.58616  1.0000
  H   H97       1.0  0.73583  0.58996  0.53493  1.0000
  O  Te73      1.0  0.97693  0.75542  0.50325  1.0000
  O  Te74      1.0  0.00493  0.78034  0.58636  1.0000
  H   H98       1.0  0.76017  0.61163  0.60740  1.0000
  Mg  Mg37      1.0  0.06420  0.81828  0.53685  1.0000
  C   C179      1.0  0.26258  0.20599  0.22918  1.0000
  C   C180      1.0  0.29088  0.17393  0.25539  1.0000
  C  Sn75      1.0  0.34111  0.15255  0.24183  1.0000
  C  Sn76      1.0  0.36333  0.16358  0.20128  1.0000
  C   C181      1.0  0.33474  0.19575  0.17531  1.0000
  C   C182      1.0  0.28449  0.21691  0.18919  1.0000
  H   H99       1.0  0.22373  0.22240  0.23992  1.0000
  O  Te75      1.0  0.36882  0.12057  0.26841  1.0000
  O  Te76      1.0  0.41348  0.14276  0.18695  1.0000
  H   H100      1.0  0.26263  0.24178  0.16890  1.0000
  Mg  Mg38      1.0  0.43578  0.10137  0.23470  1.0000
  C   C183      1.0  0.78473  0.05631  0.87458  1.0000
  C   C184      1.0  0.79318  0.11376  0.84936  1.0000
  C  Sn77      1.0  0.82040  0.18567  0.86414  1.0000
  C  Sn78      1.0  0.83950  0.20018  0.90493  1.0000
  C   C185      1.0  0.83090  0.14233  0.92990  1.0000
  C   C186      1.0  0.80358  0.07057  0.91481  1.0000
  H   H101      1.0  0.76363  0.00079  0.86290  1.0000
  O  Te77      1.0  0.82847  0.24242  0.83854  1.0000
  O  Te78      1.0  0.86686  0.27154  0.92047  1.0000
  H   H102      1.0  0.79709  0.02611  0.93433  1.0000
  Mg  Mg39      1.0  0.86797  0.33044  0.87374  1.0000
  C   C187      1.0  0.05920  0.26565  0.06615  1.0000
  C   C188      1.0  0.11991  0.29433  0.09188  1.0000
  C  Sn79      1.0  0.19098  0.34489  0.07785  1.0000
  C  Sn80      1.0  0.20130  0.36707  0.03728  1.0000
  C   C189      1.0  0.14020  0.33810  0.01179  1.0000
  C   C190      1.0  0.06932  0.28752  0.02614  1.0000
  H   H103      1.0  0.00436  0.22655  0.07726  1.0000
  O  Te79      1.0  0.25103  0.37297  0.10395  1.0000
  O  Te80      1.0  0.27172  0.41754  0.02248  1.0000
  H   H104      1.0  0.02232  0.26536  0.00622  1.0000
  Mg  Mg40      1.0  0.33620  0.44029  0.06969  1.0000
  C   C191      1.0  0.63000  0.83907  0.70924  1.0000
  C   C192      1.0  0.66870  0.81996  0.68207  1.0000
  C  Sn81      1.0  0.71974  0.79966  0.69549  1.0000
  C  Sn82      1.0  0.73212  0.79849  0.73691  1.0000
  C   C193      1.0  0.69308  0.81765  0.76386  1.0000
  C   C194      1.0  0.64216  0.83791  0.75010  1.0000
  H   H105      1.0  0.59056  0.85470  0.69860  1.0000
  O  Te81      1.0  0.75796  0.78076  0.66793  1.0000
  O  Te82      1.0  0.78280  0.77839  0.75115  1.0000
  H   H106      1.0  0.61216  0.85265  0.77115  1.0000
  Mg  Mg41      1.0  0.82136  0.75722  0.70190  1.0000
  C   C195      1.0  0.16108  0.78753  0.37548  1.0000
  C   C196      1.0  0.18315  0.84603  0.34831  1.0000
  C  Sn83      1.0  0.20666  0.91814  0.36174  1.0000
  C  Sn84      1.0  0.20806  0.93176  0.40317  1.0000
  C   C197      1.0  0.18591  0.87286  0.43011  1.0000
  C   C198      1.0  0.16246  0.80092  0.41635  1.0000
  H   H107      1.0  0.14297  0.73187  0.36484  1.0000
  O  Te83      1.0  0.22851  0.97595  0.33418  1.0000
  O  Te84      1.0  0.73398  0.00330  0.41741  1.0000
  H   H108      1.0  0.14542  0.75564  0.43740  1.0000
  Mg  Mg42      1.0  0.75842  0.06378  0.36816  1.0000
  C   C199      1.0  0.72822  0.62818  0.73126  1.0000
  C   C200      1.0  0.79123  0.66021  0.70684  1.0000
  C  Sn85      1.0  0.86208  0.69445  0.72358  1.0000
  C  Sn86      1.0  0.86983  0.69657  0.76556  1.0000
  C   C201      1.0  0.80645  0.66432  0.78973  1.0000
  C   C202      1.0  0.73581  0.63022  0.77267  1.0000
  H   H109      1.0  0.67357  0.60175  0.71806  1.0000
  O  Te85      1.0  0.92444  0.72620  0.69874  1.0000
  O  Te86      1.0  0.93998  0.73041  0.78307  1.0000
  H   H110      1.0  0.68704  0.60538  0.79158  1.0000
  Mg  Mg43      1.0  0.00820  0.76594  0.73672  1.0000
  C   C203      1.0  0.37854  0.10485  0.39408  1.0000
  C   C204      1.0  0.34288  0.13195  0.36969  1.0000
  C  Sn87      1.0  0.30443  0.16461  0.38645  1.0000
  C  Sn88      1.0  0.30175  0.17019  0.42842  1.0000
  C   C205      1.0  0.33765  0.14296  0.45256  1.0000
  C   C206      1.0  0.37595  0.11036  0.43548  1.0000
  H   H111      1.0  0.40820  0.07967  0.38087  1.0000
  O  Te87      1.0  0.26908  0.19137  0.36164  1.0000
  O  Te88      1.0  0.26374  0.20260  0.44595  1.0000
  H   H112      1.0  0.40360  0.08943  0.45437  1.0000
  Mg  Mg44      1.0  0.22433  0.23090  0.39963  1.0000
  C   C207      1.0  0.82468  0.11621  0.06642  1.0000
  C   C208      1.0  0.84581  0.17324  0.03839  1.0000
  C  Sn89      1.0  0.88279  0.24759  0.05041  1.0000
  C  Sn90      1.0  0.89884  0.26501  0.09127  1.0000
  C   C209      1.0  0.87751  0.20756  0.11909  1.0000
  C   C210      1.0  0.84052  0.13334  0.10674  1.0000
  H   H113      1.0  0.79610  0.05879  0.05687  1.0000
  O  Te89      1.0  0.90348  0.30388  0.02200  1.0000
  O  Te90      1.0  0.93576  0.33885  0.10410  1.0000
  H   H114      1.0  0.82421  0.08920  0.12845  1.0000
  Mg  Mg45      1.0  0.95264  0.39598  0.05413  1.0000
  C   C211      1.0  0.27724  0.37129  0.25335  1.0000
  C   C212      1.0  0.22005  0.34540  0.28153  1.0000
  C  Sn91      1.0  0.14602  0.31046  0.26935  1.0000
  C  Sn92      1.0  0.12911  0.30134  0.22816  1.0000
  C   C213      1.0  0.18673  0.32738  0.20020  1.0000
  C   C214      1.0  0.26061  0.36228  0.21272  1.0000
  H   H115      1.0  0.33441  0.39826  0.26303  1.0000
  O  Te91      1.0  0.08956  0.28495  0.29790  1.0000
  O  Te92      1.0  0.05560  0.26659  0.21516  1.0000
  H   H116      1.0  0.30488  0.38228  0.19089  1.0000
  Mg  Mg46      1.0  0.99805  0.24124  0.26545  1.0000
  C   C215      1.0  0.70908  0.82447  0.90045  1.0000
  C   C216      1.0  0.67286  0.84469  0.87231  1.0000
  C  Sn93      1.0  0.63363  0.87993  0.88426  1.0000
  C  Sn94      1.0  0.63072  0.89515  0.92516  1.0000
  C   C217      1.0  0.66718  0.87474  0.95307  1.0000
  C   C218      1.0  0.70626  0.83948  0.94079  1.0000
  H   H117      1.0  0.73934  0.79722  0.89095  1.0000
  O  Te93      1.0  0.59774  0.89974  0.85576  1.0000
  O  Te94      1.0  0.59193  0.93033  0.93792  1.0000
  H   H118      1.0  0.73433  0.82387  0.96258  1.0000
  Mg  Mg47      1.0  0.55200  0.94655  0.88782  1.0000
  C   C219      1.0  0.18082  0.88004  0.58814  1.0000
  C   C220      1.0  0.14213  0.81808  0.61296  1.0000
  C  Sn95      1.0  0.10390  0.74660  0.59683  1.0000
  C  Sn96      1.0  0.10454  0.73715  0.55506  1.0000
  C   C221      1.0  0.14346  0.79948  0.53049  1.0000
  C   C222      1.0  0.18150  0.87075  0.54694  1.0000
  H   H119      1.0  0.21029  0.93518  0.60087  1.0000
  O  Te95      1.0  0.06550  0.68532  0.62206  1.0000
  O  Te96      1.0  0.06683  0.66633  0.53815  1.0000
  H   H120      1.0  0.21150  0.91871  0.52772  1.0000
  Mg  Mg48      1.0  0.02251  0.60008  0.58487  1.0000
