data_image0
_chemical_formula_structural       Si6C6H6N6C6H6N6C6H6N6C6H6N6C6SnCSn2CSnTe4Mg2SnCSn2CSnTe4Mg2SnCSn2CSnTe4Mg2SnCSn2CSnTe4Mg2SnCSn2CSnTe4Mg2SnCSn2CSnTe4Mg2SnCSn2CSnTe4Mg2SnCSn2CSnTe4Mg2SnCSn2CSnTe4Mg2SnCSn2CSnTe4Mg2SnCSn2CSnTe4Mg2SnCSn2CSnTe4Mg2SnCSn2CSnTe4Mg2SnCSn2CSnTe4Mg2SnCSn2CSnTe4Mg2SnCSn2CSnTe4Mg2SnCSn2CSnTe4Mg2SnCSn2CSnTe4Mg2SnCSn2CSnTe4Mg2SnCSn2CSnTe4Mg2SnCSn2CSnTe4Mg2SnCSn2CSnTe4Mg2SnCSn2CSnTe4Mg2SnCSn2CSnTe4Mg2SnCSn2CSnTe4Mg2SnCSn2CSnTe4Mg2SnCSn2CSnTe4Mg2SnCSn2CSnTe4Mg2SnCSn2CSnTe4Mg2SnCSn2CSnTe4Mg2SnCSn2CSnTe4Mg2SnCSn2CSnTe4Mg2SnCSn2CSnTe4Mg2SnCSn2CSnTe4Mg2SnCSn2CSnTe4Mg2SnCSn2CSnTe4Mg2SnCSn2CSnTe4Mg2SnCSn2CSnTe4Mg2SnCSn2CSnTe4Mg2SnCSn2CSnTe4Mg2SnCSn2CSnTe4Mg2SnCSn2CSnTe4Mg2SnCSn2CSnTe4Mg2SnCSn2CSnTe4Mg2SnCSn2CSnTe4Mg2SnCSn2CSnTe4Mg2SnCSn2CSnTe4Mg2SnCSn2CSnTe4Mg2
_chemical_formula_sum              "Si6 C126 H24 N24 Sn192 Te192 Mg96"
_cell_length_a       20.7766
_cell_length_b       20.7243
_cell_length_c       33.6119
_cell_angle_alpha    89.8731
_cell_angle_beta     89.8384
_cell_angle_gamma    119.908

_symmetry_space_group_name_H-M    'P1'
_space_group_IT_number       1

loop_
  _space_group_symop_operation_xyz
  'x, y, z'

loop_
  _atom_site_type_symbol
  _atom_site_label
  _atom_site_symmetry_multiplicity
  _atom_site_fract_x
  _atom_site_fract_y
  _atom_site_fract_z
  _atom_site_occupancy
  Si  Si1       1.0  0.86752  0.66327  0.45767  1.0000
  Si  Si2       1.0  0.33361  0.20062  0.12109  1.0000
  Si  Si3       1.0  0.79520  0.13241  0.78868  1.0000
  Si  Si4       1.0  0.13230  0.33454  0.95722  1.0000
  Si  Si5       1.0  0.66749  0.79985  0.62173  1.0000
  Si  Si6       1.0  0.20237  0.86447  0.28791  1.0000
  C   C1        1.0  0.54953  0.52395  0.39038  1.0000
  C   C2        1.0  0.47772  0.02082  0.06128  1.0000
  C   C3        1.0  0.97758  0.45517  0.72611  1.0000
  C   C4        1.0  0.45489  0.48032  0.89595  1.0000
  C   C5        1.0  0.52277  0.97766  0.55939  1.0000
  C   C6        1.0  0.01829  0.54159  0.22834  1.0000
  H   H1        1.0  0.53786  0.56209  0.37303  1.0000
  H   H2        1.0  0.43938  0.96715  0.04736  1.0000
  H   H3        1.0  0.02990  0.46849  0.71101  1.0000
  H   H4        1.0  0.46986  0.44223  0.88121  1.0000
  H   H5        1.0  0.56107  0.03067  0.54457  1.0000
  H   H6        1.0  0.96432  0.52673  0.21504  1.0000
  N   N1        1.0  0.50082  0.45445  0.39439  1.0000
  N   N2        1.0  0.54837  0.04608  0.06170  1.0000
  N   N3        1.0  0.95489  0.50276  0.72800  1.0000
  N   N4        1.0  0.50088  0.55095  0.89717  1.0000
  N   N5        1.0  0.45221  0.95319  0.56062  1.0000
  N   N6        1.0  0.04388  0.49624  0.22780  1.0000
  C   C7        1.0  0.00781  0.48476  0.38981  1.0000
  C   C8        1.0  0.51166  0.52177  0.05632  1.0000
  C   C9        1.0  0.47743  0.99014  0.72175  1.0000
  C   C10       1.0  0.99155  0.51613  0.89445  1.0000
  C   C11       1.0  0.48668  0.48209  0.55255  1.0000
  C   C12       1.0  0.52227  0.00027  0.22192  1.0000
  H   H7        1.0  0.96773  0.42915  0.37849  1.0000
  H   H8        1.0  0.56662  0.53646  0.04423  1.0000
  H   H9        1.0  0.46150  0.03021  0.71061  1.0000
  H   H10       1.0  0.03167  0.57158  0.88266  1.0000
  H   H11       1.0  0.43102  0.46753  0.54184  1.0000
  H   H12       1.0  0.53783  0.95968  0.21121  1.0000
  N   N7        1.0  0.07842  0.51119  0.38613  1.0000
  N   N8        1.0  0.48660  0.56747  0.05386  1.0000
  N   N9        1.0  0.43326  0.91937  0.71849  1.0000
  N   N10       1.0  0.92090  0.48991  0.89144  1.0000
  N   N11       1.0  0.51220  0.43706  0.54832  1.0000
  N   N12       1.0  0.56650  0.07102  0.21806  1.0000
  C   C13       1.0  0.05422  0.98335  0.39156  1.0000
  C   C14       1.0  0.01759  0.07079  0.05312  1.0000
  C   C15       1.0  0.92663  0.94741  0.71817  1.0000
  C   C16       1.0  0.94311  0.01675  0.89019  1.0000
  C   C17       1.0  0.98696  0.93100  0.55550  1.0000
  C   C18       1.0  0.07342  0.05433  0.22157  1.0000
  H   H13       1.0  0.08608  0.98800  0.36444  1.0000
  H   H14       1.0  0.01216  0.10167  0.02787  1.0000
  H   H15       1.0  0.89971  0.91681  0.69081  1.0000
  H   H16       1.0  0.90704  0.01141  0.86499  1.0000
  H   H17       1.0  0.99170  0.90108  0.52964  1.0000
  H   H18       1.0  0.10332  0.08893  0.19559  1.0000
  N   N13       1.0  0.05629  0.04108  0.40750  1.0000
  N   N14       1.0  0.96108  0.01258  0.06809  1.0000
  N   N15       1.0  0.98208  0.94512  0.73391  1.0000
  N   N16       1.0  0.94463  0.95992  0.90497  1.0000
  N   N17       1.0  0.04425  0.98834  0.57023  1.0000
  N   N18       1.0  0.01648  0.05477  0.23682  1.0000
  C   C19       1.0  0.86580  0.70515  0.63963  1.0000
  C   C20       1.0  0.29391  0.15815  0.30291  1.0000
  C   C21       1.0  0.83595  0.13519  0.97056  1.0000
  C   C22       1.0  0.13908  0.29781  0.13940  1.0000
  C   C23       1.0  0.70401  0.83856  0.80407  1.0000
  C   C24       1.0  0.16366  0.86337  0.47012  1.0000
  H   H19       1.0  0.91620  0.75222  0.65216  1.0000
  H   H20       1.0  0.24679  0.16122  0.31587  1.0000
  H   H21       1.0  0.83168  0.08415  0.98318  1.0000
  H   H22       1.0  0.08878  0.25104  0.15250  1.0000
  H   H23       1.0  0.75084  0.83478  0.81669  1.0000
  H   H24       1.0  0.17166  0.91564  0.48296  1.0000
  N   N19       1.0  0.80841  0.66175  0.66109  1.0000
  N   N20       1.0  0.33821  0.14479  0.32384  1.0000
  N   N21       1.0  0.85130  0.19309  0.99178  1.0000
  N   N22       1.0  0.19676  0.34138  0.16037  1.0000
  N   N23       1.0  0.65979  0.85136  0.82555  1.0000
  N   N24       1.0  0.14567  0.80467  0.49144  1.0000
  C   C25       1.0  0.79701  0.66768  0.83308  1.0000
  C   C26       1.0  0.33527  0.13220  0.49571  1.0000
  C   C27       1.0  0.87043  0.20040  0.16345  1.0000
  C   C28       1.0  0.20361  0.33206  0.33231  1.0000
  C   C29       1.0  0.66866  0.86974  0.99742  1.0000
  C   C30       1.0  0.13151  0.79977  0.66343  1.0000
  C  Sn1       1.0  0.70052  0.63211  0.38970  1.0000
  C   C31       1.0  0.63922  0.56213  0.39775  1.0000
  C  Sn2       1.0  0.63996  0.52016  0.43015  1.0000
  C  Sn3       1.0  0.70328  0.54876  0.45502  1.0000
  C   C32       1.0  0.76452  0.61870  0.44697  1.0000
  C  Sn4       1.0  0.76383  0.66070  0.41457  1.0000
  O  Te1       1.0  0.69856  0.67309  0.35715  1.0000
  O  Te2       1.0  0.57803  0.45034  0.43760  1.0000
  O  Te3       1.0  0.70519  0.50770  0.48758  1.0000
  O  Te4       1.0  0.82571  0.73049  0.40712  1.0000
  Mg  Mg1       1.0  0.60726  0.41556  0.48552  1.0000
  Mg  Mg2       1.0  0.79652  0.76533  0.35922  1.0000
  C  Sn5       1.0  0.36593  0.05783  0.05929  1.0000
  C   C33       1.0  0.43718  0.07008  0.06714  1.0000
  C  Sn6       1.0  0.47990  0.11870  0.09734  1.0000
  C  Sn7       1.0  0.45080  0.15583  0.12019  1.0000
  C   C34       1.0  0.37959  0.14357  0.11234  1.0000
  C  Sn8       1.0  0.33682  0.09496  0.08214  1.0000
  O  Te5       1.0  0.32419  0.00897  0.02896  1.0000
  O  Te6       1.0  0.55099  0.13007  0.10462  1.0000
  O  Te7       1.0  0.49260  0.20471  0.15053  1.0000
  O  Te8       1.0  0.26577  0.08357  0.07486  1.0000
  Mg  Mg3       1.0  0.58641  0.20188  0.14914  1.0000
  Mg  Mg4       1.0  0.23029  0.01175  0.03036  1.0000
  C  Sn9       1.0  0.93915  0.27377  0.75284  1.0000
  C   C35       1.0  0.87334  0.24198  0.77502  1.0000
  C  Sn10      1.0  0.83221  0.27831  0.77836  1.0000
  C  Sn11      1.0  0.85735  0.34785  0.75910  1.0000
  C   C36       1.0  0.92311  0.37959  0.73693  1.0000
  C  Sn12      1.0  0.96429  0.34331  0.73358  1.0000
  O  Te9       1.0  0.97938  0.23646  0.74990  1.0000
  O  Te10      1.0  0.76661  0.24544  0.80071  1.0000
  O  Te11      1.0  0.81706  0.38514  0.76206  1.0000
  O  Te12      1.0  0.02984  0.37613  0.71124  1.0000
  Mg  Mg5       1.0  0.73120  0.31784  0.79585  1.0000
  Mg  Mg6       1.0  0.06528  0.30377  0.71607  1.0000
  C  Sn13      1.0  0.29395  0.47162  0.93756  1.0000
  C   C37       1.0  0.23660  0.39876  0.93125  1.0000
  C  Sn14      1.0  0.25235  0.34446  0.91765  1.0000
  C  Sn15      1.0  0.32698  0.36335  0.91022  1.0000
  C   C38       1.0  0.38427  0.43616  0.91654  1.0000
  C  Sn16      1.0  0.36857  0.49051  0.93013  1.0000
  O  Te13      1.0  0.27692  0.52500  0.95117  1.0000
  O  Te14      1.0  0.19408  0.27200  0.91155  1.0000
  O  Te15      1.0  0.34397  0.30988  0.89660  1.0000
  O  Te16      1.0  0.42679  0.56291  0.93624  1.0000
  Mg  Mg7       1.0  0.24543  0.21885  0.89280  1.0000
  Mg  Mg8       1.0  0.37551  0.61610  0.95501  1.0000
  C  Sn17      1.0  0.52440  0.87294  0.61365  1.0000
  C   C39       1.0  0.55555  0.93587  0.58906  1.0000
  C  Sn18      1.0  0.62156  0.95677  0.56840  1.0000
  C  Sn19      1.0  0.65716  0.91386  0.57239  1.0000
  C   C40       1.0  0.62601  0.85098  0.59696  1.0000
  C  Sn20      1.0  0.56000  0.83004  0.61763  1.0000
  O  Te17      1.0  0.45837  0.85308  0.63402  1.0000
  O  Te18      1.0  0.15429  0.01991  0.54401  1.0000
  O  Te19      1.0  0.72324  0.93379  0.55200  1.0000
  O  Te20      1.0  0.52991  0.76693  0.64201  1.0000
  Mg  Mg9       1.0  0.24514  0.02437  0.52235  1.0000
  Mg  Mg10      1.0  0.43905  0.76240  0.66367  1.0000
  C  Sn21      1.0  0.12563  0.64768  0.28105  1.0000
  C   C41       1.0  0.06156  0.61639  0.25774  1.0000
  C  Sn22      1.0  0.04084  0.66197  0.23736  1.0000
  C  Sn23      1.0  0.08511  0.74048  0.24032  1.0000
  C   C42       1.0  0.14913  0.77172  0.26360  1.0000
  C  Sn24      1.0  0.16989  0.72618  0.28400  1.0000
  O  Te21      1.0  0.14528  0.60103  0.30116  1.0000
  O  Te22      1.0  0.97654  0.62940  0.21426  1.0000
  O  Te23      1.0  0.06539  0.78711  0.22018  1.0000
  O  Te24      1.0  0.23415  0.75871  0.30708  1.0000
  Mg  Mg11      1.0  0.97291  0.71634  0.19245  1.0000
  Mg  Mg12      1.0  0.23786  0.67183  0.32889  1.0000
  C  Sn25      1.0  0.33963  0.45708  0.36481  1.0000
  C   C43       1.0  0.29816  0.39123  0.34351  1.0000
  C  Sn26      1.0  0.32002  0.33751  0.34235  1.0000
  C  Sn27      1.0  0.38465  0.34984  0.36295  1.0000
  C   C44       1.0  0.42608  0.41566  0.38425  1.0000
  C  Sn28      1.0  0.40427  0.46942  0.38541  1.0000
  O  Te25      1.0  0.31675  0.51001  0.36555  1.0000
  O  Te26      1.0  0.27767  0.27212  0.32084  1.0000
  O  Te27      1.0  0.40752  0.29684  0.36219  1.0000
  O  Te28      1.0  0.44657  0.53476  0.40691  1.0000
  Mg  Mg13      1.0  0.33145  0.21669  0.32879  1.0000
  Mg  Mg14      1.0  0.39282  0.59021  0.39900  1.0000
  C  Sn29      1.0  0.17726  0.00773  0.01457  1.0000
  C   C45       1.0  0.64897  0.93194  0.02041  1.0000
  C  Sn30      1.0  0.57962  0.88620  0.03791  1.0000
  C  Sn31      1.0  0.53493  0.91684  0.04979  1.0000
  C   C46       1.0  0.56056  0.99258  0.04393  1.0000
  C  Sn32      1.0  0.13257  0.03837  0.02644  1.0000
  O  Te29      1.0  0.23832  0.04459  0.99702  1.0000
  O  Te30      1.0  0.55519  0.81061  0.04346  1.0000
  O  Te31      1.0  0.46537  0.87209  0.06735  1.0000
  O  Te32      1.0  0.15699  0.11392  0.02089  1.0000
  Mg  Mg15      1.0  0.45644  0.77245  0.06862  1.0000
  Mg  Mg16      1.0  0.24726  0.14430  0.99571  1.0000
  C  Sn33      1.0  0.99410  0.67060  0.68439  1.0000
  C   C47       1.0  0.07052  0.71858  0.68813  1.0000
  C  Sn34      1.0  0.11609  0.69216  0.70261  1.0000
  C  Sn35      1.0  0.08462  0.61619  0.71356  1.0000
  C   C48       1.0  0.00825  0.56825  0.70982  1.0000
  C  Sn36      1.0  0.96263  0.59462  0.69534  1.0000
  O  Te33      1.0  0.94960  0.69821  0.66984  1.0000
  O  Te34      1.0  0.19234  0.74120  0.70610  1.0000
  O  Te35      1.0  0.12920  0.58859  0.72812  1.0000
  O  Te36      1.0  0.88643  0.54562  0.69185  1.0000
  Mg  Mg17      1.0  0.22993  0.67714  0.72743  1.0000
  Mg  Mg18      1.0  0.84880  0.60962  0.67050  1.0000
  C  Sn37      1.0  0.60851  0.63345  0.84181  1.0000
  C   C49       1.0  0.57135  0.57591  0.86943  1.0000
  C  Sn38      1.0  0.60997  0.54832  0.89092  1.0000
  C  Sn39      1.0  0.68735  0.57891  0.88469  1.0000
  C   C50       1.0  0.72447  0.63643  0.85709  1.0000
  C  Sn40      1.0  0.68589  0.66405  0.83558  1.0000
  O  Te37      1.0  0.56879  0.66017  0.82066  1.0000
  O  Te38      1.0  0.57161  0.49074  0.91836  1.0000
  O  Te39      1.0  0.72706  0.55214  0.90587  1.0000
  O  Te40      1.0  0.72421  0.72160  0.80816  1.0000
  Mg  Mg19      1.0  0.65015  0.47318  0.93996  1.0000
  Mg  Mg20      1.0  0.64574  0.73922  0.78656  1.0000
  C  Sn41      1.0  0.44343  0.08312  0.56181  1.0000
  C   C51       1.0  0.41941  0.00816  0.55443  1.0000
  C  Sn42      1.0  0.87057  0.97205  0.52216  1.0000
  C  Sn43      1.0  0.35059  0.01169  0.49671  1.0000
  C   C52       1.0  0.37462  0.08660  0.50409  1.0000
  C  Sn44      1.0  0.42081  0.12276  0.53636  1.0000
  O  Te41      1.0  0.48960  0.11811  0.59425  1.0000
  O  Te42      1.0  0.84725  0.89707  0.51539  1.0000
  O  Te43      1.0  0.80174  0.97663  0.46425  1.0000
  O  Te44      1.0  0.44414  0.19769  0.54313  1.0000
  Mg  Mg21      1.0  0.78470  0.87388  0.46735  1.0000
  Mg  Mg22      1.0  0.50671  0.22095  0.59115  1.0000
  C  Sn45      1.0  0.91462  0.35714  0.22872  1.0000
  C   C53       1.0  0.98962  0.40827  0.22196  1.0000
  C  Sn46      1.0  0.02732  0.39879  0.19006  1.0000
  C  Sn47      1.0  0.98926  0.33695  0.16437  1.0000
  C   C54       1.0  0.91430  0.28587  0.17114  1.0000
  C  Sn48      1.0  0.87655  0.29530  0.20303  1.0000
  O  Te45      1.0  0.87803  0.36772  0.26079  1.0000
  O  Te46      1.0  0.10230  0.45063  0.18390  1.0000
  O  Te47      1.0  0.02591  0.32640  0.13228  1.0000
  O  Te48      1.0  0.80161  0.24351  0.20919  1.0000
  Mg  Mg23      1.0  0.12800  0.41215  0.13618  1.0000
  Mg  Mg24      1.0  0.77585  0.28195  0.25689  1.0000
  C  Sn49      1.0  0.00163  0.63825  0.43304  1.0000
  C   C55       1.0  0.92689  0.61901  0.43287  1.0000
  C  Sn50      1.0  0.87193  0.54677  0.42316  1.0000
  C  Sn51      1.0  0.89209  0.49262  0.41342  1.0000
  C   C56       1.0  0.96679  0.51187  0.41360  1.0000
  C  Sn52      1.0  0.02179  0.58410  0.42330  1.0000
  O  Te49      1.0  0.05564  0.71080  0.44285  1.0000
  O  Te50      1.0  0.79758  0.52886  0.42318  1.0000
  O  Te51      1.0  0.83801  0.42003  0.40361  1.0000
  O  Te52      1.0  0.09610  0.60201  0.42329  1.0000
  Mg  Mg25      1.0  0.74427  0.42260  0.40780  1.0000
  Mg  Mg26      1.0  0.14946  0.70824  0.43868  1.0000
  C  Sn53      1.0  0.47670  0.37388  0.05821  1.0000
  C   C57       1.0  0.46325  0.43275  0.06458  1.0000
  C  Sn54      1.0  0.41451  0.42817  0.09461  1.0000
  C  Sn55      1.0  0.37848  0.36341  0.11878  1.0000
  C   C58       1.0  0.39194  0.30460  0.11241  1.0000
  C  Sn56      1.0  0.44067  0.30913  0.08239  1.0000
  O  Te53      1.0  0.52565  0.37966  0.02802  1.0000
  O  Te54      1.0  0.40193  0.48773  0.10040  1.0000
  O  Te55      1.0  0.32949  0.35767  0.14899  1.0000
  O  Te56      1.0  0.45326  0.24962  0.07659  1.0000
  Mg  Mg27      1.0  0.33048  0.45349  0.14533  1.0000
  Mg  Mg28      1.0  0.52473  0.28380  0.03169  1.0000
  C  Sn57      1.0  0.65023  0.13444  0.75652  1.0000
  C   C59       1.0  0.68433  0.10026  0.77644  1.0000
  C  Sn58      1.0  0.65290  0.02295  0.77569  1.0000
  C  Sn59      1.0  0.08338  0.97887  0.75457  1.0000
  C   C60       1.0  0.55197  0.01306  0.73467  1.0000
  C  Sn60      1.0  0.58335  0.09037  0.73540  1.0000
  O  Te57      1.0  0.68262  0.21183  0.75767  1.0000
  O  Te58      1.0  0.18536  0.99004  0.79584  1.0000
  O  Te59      1.0  0.05099  0.90144  0.75344  1.0000
  O  Te60      1.0  0.54829  0.12328  0.71527  1.0000
  Mg  Mg29      1.0  0.11972  0.88255  0.78550  1.0000
  Mg  Mg30      1.0  0.61390  0.23076  0.72556  1.0000
  C  Sn61      1.0  0.99005  0.40879  0.94867  1.0000
  C   C61       1.0  0.02228  0.47286  0.92494  1.0000
  C  Sn62      1.0  0.08936  0.49492  0.90517  1.0000
  C  Sn63      1.0  0.12497  0.45202  0.90918  1.0000
  C   C62       1.0  0.09274  0.38799  0.93289  1.0000
  C  Sn64      1.0  0.02566  0.36589  0.95267  1.0000
  O  Te61      1.0  0.92296  0.38778  0.96816  1.0000
  O  Te62      1.0  0.12052  0.55920  0.88163  1.0000
  O  Te63      1.0  0.19212  0.47309  0.88967  1.0000
  O  Te64      1.0  0.99451  0.30165  0.97620  1.0000
  Mg  Mg31      1.0  0.21260  0.56496  0.86098  1.0000
  Mg  Mg32      1.0  0.90241  0.29581  0.99684  1.0000
  C  Sn65      1.0  0.59557  0.58406  0.60635  1.0000
  C   C63       1.0  0.53124  0.55403  0.58328  1.0000
  C  Sn66      1.0  0.50717  0.60023  0.56678  1.0000
  C  Sn67      1.0  0.54828  0.67809  0.57345  1.0000
  C   C64       1.0  0.61257  0.70809  0.59649  1.0000
  C  Sn68      1.0  0.63668  0.66192  0.61301  1.0000
  O  Te65      1.0  0.61860  0.53682  0.62255  1.0000
  O  Te66      1.0  0.44268  0.56891  0.54384  1.0000
  O  Te67      1.0  0.52519  0.72532  0.55722  1.0000
  O  Te68      1.0  0.70114  0.69320  0.63594  1.0000
  Mg  Mg33      1.0  0.43382  0.65626  0.52809  1.0000
  Mg  Mg34      1.0  0.71006  0.60591  0.65168  1.0000
  C  Sn69      1.0  0.36253  0.99688  0.26297  1.0000
  C   C65       1.0  0.30594  0.92250  0.26190  1.0000
  C  Sn70      1.0  0.32202  0.86644  0.25241  1.0000
  C  Sn71      1.0  0.39622  0.88510  0.24385  1.0000
  C   C66       1.0  0.45276  0.95944  0.24494  1.0000
  C  Sn72      1.0  0.93938  0.01554  0.25441  1.0000
  O  Te69      1.0  0.84782  0.05201  0.27253  1.0000
  O  Te70      1.0  0.26450  0.79248  0.25151  1.0000
  O  Te71      1.0  0.41354  0.82989  0.23429  1.0000
  O  Te72      1.0  0.99685  0.08946  0.25532  1.0000
  Mg  Mg35      1.0  0.31604  0.73724  0.23692  1.0000
  Mg  Mg36      1.0  0.94538  0.14474  0.26993  1.0000
  C  Sn73      1.0  0.09379  0.38637  0.39374  1.0000
  C   C67       1.0  0.11228  0.45788  0.38110  1.0000
  C  Sn74      1.0  0.15343  0.48779  0.34624  1.0000
  C  Sn75      1.0  0.17654  0.44531  0.32351  1.0000
  C   C68       1.0  0.15804  0.37384  0.33614  1.0000
  C  Sn76      1.0  0.11690  0.34389  0.37101  1.0000
  O  Te73      1.0  0.05261  0.35759  0.42869  1.0000
  O  Te74      1.0  0.17127  0.55942  0.33421  1.0000
  O  Te75      1.0  0.21776  0.47415  0.28853  1.0000
  O  Te76      1.0  0.09906  0.27230  0.38303  1.0000
  Mg  Mg37      1.0  0.22830  0.57428  0.28444  1.0000
  Mg  Mg38      1.0  0.04200  0.25737  0.43278  1.0000
  C  Sn77      1.0  0.65449  0.73227  0.03233  1.0000
  C   C69       1.0  0.63495  0.77326  0.00702  1.0000
  C  Sn78      1.0  0.55188  0.74168  0.99951  1.0000
  C  Sn79      1.0  0.50406  0.68341  0.01769  1.0000
  C   C70       1.0  0.52361  0.64246  0.04299  1.0000
  C  Sn80      1.0  0.59823  0.66618  0.05051  1.0000
  O  Te77      1.0  0.72945  0.75707  0.03942  1.0000
  O  Te78      1.0  0.53371  0.78358  0.97409  1.0000
  O  Te79      1.0  0.42907  0.65863  0.01058  1.0000
  O  Te80      1.0  0.61641  0.62432  0.07592  1.0000
  Mg  Mg39      1.0  0.42380  0.72699  0.97373  1.0000
  Mg  Mg40      1.0  0.72629  0.68088  0.07632  1.0000
  C  Sn81      1.0  0.29333  0.90424  0.72640  1.0000
  C   C71       1.0  0.34599  0.88563  0.71349  1.0000
  C  Sn82      1.0  0.33560  0.84685  0.67796  1.0000
  C  Sn83      1.0  0.27126  0.82627  0.65484  1.0000
  C   C72       1.0  0.21865  0.84488  0.66775  1.0000
  C  Sn84      1.0  0.22898  0.88366  0.70328  1.0000
  O  Te81      1.0  0.30486  0.94304  0.76201  1.0000
  O  Te82      1.0  0.38901  0.82885  0.66567  1.0000
  O  Te83      1.0  0.25976  0.78744  0.61921  1.0000
  O  Te84      1.0  0.17562  0.90167  0.71557  1.0000
  Mg  Mg41      1.0  0.34837  0.77563  0.61498  1.0000
  Mg  Mg42      1.0  0.21622  0.95492  0.76624  1.0000
  C  Sn85      1.0  0.90701  0.61645  0.89599  1.0000
  C   C73       1.0  0.88724  0.54369  0.88548  1.0000
  C  Sn86      1.0  0.84517  0.51131  0.85139  1.0000
  C  Sn87      1.0  0.82242  0.55254  0.82729  1.0000
  C   C74       1.0  0.84219  0.62526  0.83780  1.0000
  C  Sn88      1.0  0.88426  0.65768  0.87189  1.0000
  O  Te85      1.0  0.94910  0.64770  0.93020  1.0000
  O  Te86      1.0  0.82607  0.43847  0.84150  1.0000
  O  Te87      1.0  0.78029  0.52122  0.79306  1.0000
  O  Te88      1.0  0.90337  0.73047  0.88178  1.0000
  Mg  Mg43      1.0  0.76814  0.42024  0.79200  1.0000
  Mg  Mg44      1.0  0.96132  0.74877  0.93126  1.0000
  C  Sn89      1.0  0.34623  0.26993  0.52706  1.0000
  C   C75       1.0  0.36810  0.22909  0.50316  1.0000
  C  Sn90      1.0  0.44334  0.25437  0.49634  1.0000
  C  Sn91      1.0  0.49787  0.32187  0.51380  1.0000
  C   C76       1.0  0.47599  0.36267  0.53769  1.0000
  C  Sn92      1.0  0.40076  0.33743  0.54452  1.0000
  O  Te89      1.0  0.27070  0.24360  0.53347  1.0000
  O  Te90      1.0  0.46385  0.21258  0.47233  1.0000
  O  Te91      1.0  0.57344  0.34819  0.50737  1.0000
  O  Te92      1.0  0.38024  0.37917  0.56852  1.0000
  Mg  Mg45      1.0  0.57369  0.27154  0.47244  1.0000
  Mg  Mg46      1.0  0.27043  0.32025  0.56844  1.0000
  C  Sn93      1.0  0.73554  0.07509  0.19871  1.0000
  C   C77       1.0  0.77455  0.13506  0.17269  1.0000
  C  Sn94      1.0  0.74754  0.18307  0.16377  1.0000
  C  Sn95      1.0  0.68015  0.17092  0.18124  1.0000
  C   C78       1.0  0.64119  0.11100  0.20725  1.0000
  C  Sn96      1.0  0.66815  0.06295  0.21618  1.0000
  O  Te93      1.0  0.76358  0.02781  0.20721  1.0000
  O  Te94      1.0  0.78751  0.24262  0.13766  1.0000
  O  Te95      1.0  0.65213  0.21827  0.17272  1.0000
  O  Te96      1.0  0.62823  0.00343  0.24228  1.0000
  Mg  Mg47      1.0  0.72664  0.29166  0.13538  1.0000
  Mg  Mg48      1.0  0.18641  0.95438  0.24459  1.0000
  C  Sn97      1.0  0.96173  0.88150  0.45174  1.0000
  C   C79       1.0  0.01447  0.90799  0.42111  1.0000
  C  Sn98      1.0  0.01856  0.85852  0.39446  1.0000
  C  Sn99      1.0  0.96887  0.78095  0.39849  1.0000
  C   C80       1.0  0.91617  0.75450  0.42910  1.0000
  C  Sn100     1.0  0.91205  0.80393  0.45577  1.0000
  O  Te97      1.0  0.95864  0.93197  0.47804  1.0000
  O  Te98      1.0  0.07177  0.88632  0.36409  1.0000
  O  Te99      1.0  0.97201  0.73048  0.37216  1.0000
  O  Te100     1.0  0.85887  0.77617  0.48613  1.0000
  Mg  Mg49      1.0  0.05410  0.79539  0.33565  1.0000
  Mg  Mg50      1.0  0.87646  0.86704  0.51457  1.0000
  C  Sn101     1.0  0.11654  0.07237  0.11146  1.0000
  C   C81       1.0  0.09159  0.10215  0.08194  1.0000
  C  Sn102     1.0  0.14230  0.16001  0.05755  1.0000
  C  Sn103     1.0  0.21957  0.18869  0.06275  1.0000
  C   C82       1.0  0.24449  0.15891  0.09224  1.0000
  C  Sn104     1.0  0.19381  0.10105  0.11666  1.0000
  O  Te101     1.0  0.06485  0.01453  0.13550  1.0000
  O  Te102     1.0  0.11602  0.18889  0.02825  1.0000
  O  Te103     1.0  0.27127  0.24658  0.03867  1.0000
  O  Te104     1.0  0.22005  0.07217  0.14593  1.0000
  Mg  Mg51      1.0  0.20823  0.26740  0.00290  1.0000
  Mg  Mg52      1.0  0.62525  0.99364  0.17129  1.0000
  C  Sn105     1.0  0.79043  0.99859  0.73861  1.0000
  C   C83       1.0  0.81893  0.05167  0.76885  1.0000
  C  Sn106     1.0  0.89233  0.08091  0.78131  1.0000
  C  Sn107     1.0  0.93822  0.05663  0.76314  1.0000
  C   C84       1.0  0.90972  0.00359  0.73291  1.0000
  C  Sn108     1.0  0.33367  0.97431  0.72044  1.0000
  O  Te105     1.0  0.21424  0.97012  0.72662  1.0000
  O  Te106     1.0  0.91957  0.13390  0.81162  1.0000
  O  Te107     1.0  0.01181  0.08515  0.77516  1.0000
  O  Te108     1.0  0.30644  0.92136  0.69015  1.0000
  Mg  Mg53      1.0  0.02344  0.15621  0.81759  1.0000
  Mg  Mg54      1.0  0.20259  0.89904  0.68414  1.0000
  C  Sn109     1.0  0.09409  0.16690  0.94020  1.0000
  C   C85       1.0  0.09008  0.23048  0.93070  1.0000
  C  Sn110     1.0  0.02871  0.22429  0.91037  1.0000
  C  Sn111     1.0  0.97010  0.15307  0.89934  1.0000
  C   C86       1.0  0.97412  0.08954  0.90885  1.0000
  C  Sn112     1.0  0.03548  0.09567  0.92917  1.0000
  O  Te109     1.0  0.15597  0.17439  0.96053  1.0000
  O  Te110     1.0  0.02596  0.28866  0.90118  1.0000
  O  Te111     1.0  0.90819  0.14562  0.87899  1.0000
  O  Te112     1.0  0.03824  0.03136  0.93836  1.0000
  Mg  Mg55      1.0  0.93002  0.24969  0.87319  1.0000
  Mg  Mg56      1.0  0.13413  0.07026  0.96637  1.0000
  C  Sn113     1.0  0.83502  0.93015  0.60549  1.0000
  C   C87       1.0  0.77239  0.86276  0.59531  1.0000
  C  Sn114     1.0  0.78007  0.80833  0.57489  1.0000
  C  Sn115     1.0  0.85184  0.82151  0.56444  1.0000
  C   C88       1.0  0.91441  0.88886  0.57463  1.0000
  C  Sn116     1.0  0.90678  0.94333  0.59504  1.0000
  O  Te113     1.0  0.82603  0.98378  0.62590  1.0000
  O  Te114     1.0  0.71664  0.74140  0.56502  1.0000
  O  Te115     1.0  0.86078  0.76781  0.54401  1.0000
  O  Te116     1.0  0.47281  0.01022  0.60491  1.0000
  Mg  Mg57      1.0  0.75755  0.68554  0.53718  1.0000
  Mg  Mg58      1.0  0.43197  0.06610  0.63277  1.0000
  C  Sn117     1.0  0.07441  0.90483  0.27351  1.0000
  C   C89       1.0  0.14069  0.90768  0.26249  1.0000
  C  Sn118     1.0  0.19425  0.96781  0.24039  1.0000
  C  Sn119     1.0  0.68396  0.02634  0.22909  1.0000
  C   C90       1.0  0.61772  0.02348  0.24011  1.0000
  C  Sn120     1.0  0.06147  0.96336  0.26220  1.0000
  O  Te117     1.0  0.02164  0.84418  0.29560  1.0000
  O  Te118     1.0  0.26008  0.96941  0.22972  1.0000
  O  Te119     1.0  0.73680  0.08702  0.20698  1.0000
  O  Te120     1.0  0.99568  0.96175  0.27288  1.0000
  Mg  Mg59      1.0  0.81771  0.06391  0.19959  1.0000
  Mg  Mg60      1.0  0.94068  0.86730  0.30302  1.0000
  C  Sn121     1.0  0.11600  0.12801  0.33819  1.0000
  C   C91       1.0  0.11244  0.11106  0.37868  1.0000
  C  Sn122     1.0  0.13101  0.16645  0.40721  1.0000
  C  Sn123     1.0  0.15356  0.24031  0.39501  1.0000
  C   C92       1.0  0.15710  0.25722  0.35454  1.0000
  C  Sn124     1.0  0.13855  0.20187  0.32599  1.0000
  O  Te121     1.0  0.09718  0.07176  0.31018  1.0000
  O  Te122     1.0  0.12704  0.14817  0.44753  1.0000
  O  Te123     1.0  0.17238  0.29657  0.42306  1.0000
  O  Te124     1.0  0.14250  0.22012  0.28570  1.0000
  Mg  Mg61      1.0  0.15820  0.24414  0.47442  1.0000
  Mg  Mg62      1.0  0.11132  0.12419  0.25878  1.0000
  C  Sn125     1.0  0.87172  0.98950  0.00074  1.0000
  C   C93       1.0  0.39277  0.00071  0.04106  1.0000
  C  Sn126     1.0  0.83629  0.96142  0.07014  1.0000
  C  Sn127     1.0  0.76253  0.90981  0.05867  1.0000
  C   C94       1.0  0.74416  0.89861  0.01837  1.0000
  C  Sn128     1.0  0.78951  0.93007  0.98927  1.0000
  O  Te125     1.0  0.42063  0.02157  0.97217  1.0000
  O  Te126     1.0  0.85601  0.97359  0.11027  1.0000
  O  Te127     1.0  0.70781  0.86992  0.08727  1.0000
  O  Te128     1.0  0.76982  0.91791  0.94917  1.0000
  Mg  Mg63      1.0  0.76185  0.90583  0.13811  1.0000
  Mg  Mg64      1.0  0.86394  0.98560  0.92129  1.0000
  C  Sn129     1.0  0.01691  0.88977  0.66527  1.0000
  C   C95       1.0  0.99908  0.89129  0.70525  1.0000
  C  Sn130     1.0  0.03248  0.87108  0.73504  1.0000
  C  Sn131     1.0  0.08484  0.84895  0.72466  1.0000
  C   C96       1.0  0.10266  0.84745  0.68470  1.0000
  C  Sn132     1.0  0.06927  0.86763  0.65489  1.0000
  O  Te129     1.0  0.98284  0.91020  0.63598  1.0000
  O  Te130     1.0  0.01375  0.87301  0.77480  1.0000
  O  Te131     1.0  0.11891  0.82851  0.75399  1.0000
  O  Te132     1.0  0.08799  0.86572  0.61515  1.0000
  Mg  Mg65      1.0  0.07515  0.84019  0.80395  1.0000
  Mg  Mg66      1.0  0.02665  0.89857  0.58598  1.0000
  C  Sn133     1.0  0.82057  0.77044  0.89703  1.0000
  C   C97       1.0  0.81701  0.75264  0.85672  1.0000
  C  Sn134     1.0  0.86632  0.80509  0.82945  1.0000
  C  Sn135     1.0  0.92035  0.87683  0.84275  1.0000
  C   C98       1.0  0.92390  0.89460  0.88304  1.0000
  C  Sn136     1.0  0.87460  0.84218  0.91033  1.0000
  O  Te133     1.0  0.77071  0.71713  0.92377  1.0000
  O  Te134     1.0  0.86166  0.78601  0.78930  1.0000
  O  Te135     1.0  0.97022  0.93015  0.81597  1.0000
  O  Te136     1.0  0.87924  0.86123  0.95046  1.0000
  Mg  Mg67      1.0  0.94187  0.87770  0.76432  1.0000
  Mg  Mg68      1.0  0.79909  0.76958  0.97547  1.0000
  C  Sn137     1.0  0.17372  0.07263  0.49263  1.0000
  C   C99       1.0  0.24337  0.10272  0.51057  1.0000
  C  Sn138     1.0  0.24954  0.08513  0.55000  1.0000
  C  Sn139     1.0  0.18475  0.03641  0.57195  1.0000
  C   C100      1.0  0.11516  0.00634  0.55401  1.0000
  C  Sn140     1.0  0.10893  0.02390  0.51458  1.0000
  O  Te137     1.0  0.16886  0.09097  0.45317  1.0000
  O  Te138     1.0  0.31977  0.11593  0.56730  1.0000
  O  Te139     1.0  0.18966  0.01808  0.61144  1.0000
  O  Te140     1.0  0.53611  0.99313  0.49728  1.0000
  Mg  Mg69      1.0  0.29771  0.07409  0.62188  1.0000
  Mg  Mg70      1.0  0.06075  0.03489  0.44269  1.0000
  C  Sn141     1.0  0.99048  0.11706  0.16812  1.0000
  C   C101      1.0  0.00373  0.11291  0.20853  1.0000
  C  Sn142     1.0  0.96541  0.12912  0.23739  1.0000
  C  Sn143     1.0  0.91271  0.14987  0.22561  1.0000
  C   C102      1.0  0.89947  0.15400  0.18523  1.0000
  C  Sn144     1.0  0.93778  0.13781  0.15635  1.0000
  O  Te141     1.0  0.02943  0.10061  0.13979  1.0000
  O  Te142     1.0  0.97962  0.12461  0.27760  1.0000
  O  Te143     1.0  0.87375  0.16633  0.25399  1.0000
  O  Te144     1.0  0.92359  0.14231  0.11616  1.0000
  Mg  Mg71      1.0  0.91247  0.15228  0.30506  1.0000
  Mg  Mg72      1.0  0.99067  0.11461  0.08867  1.0000
  C  Sn145     1.0  0.94281  0.70972  0.54441  1.0000
  C   C103      1.0  0.88295  0.66509  0.51972  1.0000
  C  Sn146     1.0  0.81012  0.63761  0.53306  1.0000
  C  Sn147     1.0  0.79683  0.65515  0.57189  1.0000
  C   C104      1.0  0.85666  0.69976  0.59656  1.0000
  C  Sn148     1.0  0.92952  0.72726  0.58323  1.0000
  O  Te145     1.0  0.01517  0.73659  0.53044  1.0000
  O  Te146     1.0  0.75118  0.59308  0.50785  1.0000
  O  Te147     1.0  0.72440  0.62824  0.58584  1.0000
  O  Te148     1.0  0.98844  0.77178  0.60843  1.0000
  Mg  Mg73      1.0  0.66257  0.56979  0.54040  1.0000
  Mg  Mg74      1.0  0.07706  0.79512  0.57589  1.0000
  C  Sn149     1.0  0.37715  0.17631  0.23249  1.0000
  C   C105      1.0  0.33087  0.18940  0.25735  1.0000
  C  Sn150     1.0  0.27342  0.19769  0.24134  1.0000
  C  Sn151     1.0  0.26196  0.19275  0.19962  1.0000
  C   C106      1.0  0.30822  0.17966  0.17479  1.0000
  C  Sn152     1.0  0.36570  0.17137  0.19077  1.0000
  O  Te149     1.0  0.43424  0.16819  0.24914  1.0000
  O  Te150     1.0  0.22788  0.21076  0.26679  1.0000
  O  Te151     1.0  0.20482  0.20089  0.18299  1.0000
  O  Te152     1.0  0.41121  0.15829  0.16535  1.0000
  Mg  Mg75      1.0  0.15754  0.21793  0.22992  1.0000
  Mg  Mg76      1.0  0.48154  0.15108  0.20219  1.0000
  C  Sn153     1.0  0.85523  0.20842  0.87361  1.0000
  C   C107      1.0  0.82803  0.14786  0.84770  1.0000
  C  Sn154     1.0  0.78891  0.07514  0.86248  1.0000
  C  Sn155     1.0  0.77666  0.06269  0.90401  1.0000
  C   C108      1.0  0.80383  0.12322  0.92990  1.0000
  C  Sn156     1.0  0.84298  0.19596  0.91514  1.0000
  O  Te153     1.0  0.89419  0.28063  0.85817  1.0000
  O  Te154     1.0  0.76228  0.01550  0.83599  1.0000
  O  Te155     1.0  0.23502  0.99040  0.91943  1.0000
  O  Te156     1.0  0.86959  0.25558  0.94160  1.0000
  Mg  Mg77      1.0  0.20972  0.92740  0.87139  1.0000
  Mg  Mg78      1.0  0.91947  0.34369  0.90623  1.0000
  C  Sn157     1.0  0.06920  0.25075  0.06480  1.0000
  C   C109      1.0  0.12950  0.28605  0.09062  1.0000
  C  Sn158     1.0  0.19434  0.34997  0.07848  1.0000
  C  Sn159     1.0  0.19900  0.37926  0.03973  1.0000
  C   C110      1.0  0.13873  0.34398  0.01393  1.0000
  C  Sn160     1.0  0.07386  0.28004  0.02605  1.0000
  O  Te157     1.0  0.00492  0.18691  0.07757  1.0000
  O  Te158     1.0  0.25390  0.38427  0.10482  1.0000
  O  Te159     1.0  0.26335  0.44315  0.02698  1.0000
  O  Te160     1.0  0.00587  0.23794  0.99973  1.0000
  Mg  Mg79      1.0  0.32955  0.46996  0.07367  1.0000
  Mg  Mg80      1.0  0.93863  0.16009  0.03086  1.0000
  C  Sn161     1.0  0.71261  0.76978  0.70876  1.0000
  C   C111      1.0  0.66819  0.78503  0.68374  1.0000
  C  Sn162     1.0  0.63961  0.82967  0.69686  1.0000
  C  Sn163     1.0  0.65580  0.85975  0.73580  1.0000
  C   C112      1.0  0.70021  0.84451  0.76080  1.0000
  C  Sn164     1.0  0.72880  0.79986  0.74770  1.0000
  O  Te161     1.0  0.74058  0.72501  0.69502  1.0000
  O  Te162     1.0  0.59531  0.84411  0.67131  1.0000
  O  Te163     1.0  0.62778  0.90455  0.74953  1.0000
  O  Te164     1.0  0.77308  0.78542  0.77323  1.0000
  Mg  Mg81      1.0  0.57018  0.90829  0.70366  1.0000
  Mg  Mg82      1.0  0.79828  0.72129  0.74090  1.0000
  C  Sn165     1.0  0.18944  0.93336  0.39511  1.0000
  C   C113      1.0  0.16143  0.87289  0.42137  1.0000
  C  Sn166     1.0  0.15559  0.80558  0.40960  1.0000
  C  Sn167     1.0  0.17825  0.79856  0.37077  1.0000
  C   C114      1.0  0.20626  0.85901  0.34454  1.0000
  C  Sn168     1.0  0.21211  0.92635  0.35629  1.0000
  O  Te165     1.0  0.69744  0.00013  0.40752  1.0000
  O  Te166     1.0  0.12738  0.74590  0.43637  1.0000
  O  Te167     1.0  0.17287  0.73172  0.35837  1.0000
  O  Te168     1.0  0.24030  0.98600  0.32954  1.0000
  Mg  Mg83      1.0  0.13095  0.66638  0.40559  1.0000
  Mg  Mg84      1.0  0.73945  0.06555  0.36029  1.0000
  C  Sn169     1.0  0.73048  0.61287  0.75517  1.0000
  C   C115      1.0  0.78806  0.64383  0.78287  1.0000
  C  Sn170     1.0  0.86054  0.69399  0.77063  1.0000
  C  Sn171     1.0  0.87579  0.71366  0.72985  1.0000
  C   C116      1.0  0.81823  0.68272  0.70217  1.0000
  C  Sn172     1.0  0.74573  0.63254  0.71439  1.0000
  O  Te169     1.0  0.65844  0.56284  0.76808  1.0000
  O  Te170     1.0  0.91718  0.72419  0.79887  1.0000
  O  Te171     1.0  0.94790  0.76374  0.71695  1.0000
  O  Te172     1.0  0.68911  0.60236  0.68618  1.0000
  Mg  Mg85      1.0  0.00626  0.78996  0.76668  1.0000
  Mg  Mg86      1.0  0.60001  0.53662  0.71833  1.0000
  C  Sn173     1.0  0.31551  0.19254  0.39789  1.0000
  C   C117      1.0  0.34359  0.16274  0.37011  1.0000
  C  Sn174     1.0  0.36438  0.11108  0.38194  1.0000
  C  Sn175     1.0  0.35690  0.08870  0.42239  1.0000
  C   C118      1.0  0.32882  0.11849  0.45015  1.0000
  C  Sn176     1.0  0.30803  0.17017  0.43834  1.0000
  O  Te173     1.0  0.29507  0.24411  0.38539  1.0000
  O  Te174     1.0  0.39233  0.08207  0.35363  1.0000
  O  Te175     1.0  0.37737  0.03709  0.43487  1.0000
  O  Te176     1.0  0.28007  0.19915  0.46663  1.0000
  Mg  Mg87      1.0  0.41254  0.01339  0.38520  1.0000
  Mg  Mg88      1.0  0.25982  0.26780  0.43509  1.0000
  C  Sn177     1.0  0.87870  0.26822  0.08622  1.0000
  C   C119      1.0  0.85561  0.21009  0.11373  1.0000
  C  Sn178     1.0  0.83663  0.13861  0.10109  1.0000
  C  Sn179     1.0  0.84084  0.12496  0.06010  1.0000
  C   C120      1.0  0.86392  0.18308  0.03262  1.0000
  C  Sn180     1.0  0.88291  0.25458  0.04523  1.0000
  O  Te177     1.0  0.89741  0.33924  0.09953  1.0000
  O  Te178     1.0  0.81368  0.08138  0.12915  1.0000
  O  Te179     1.0  0.82209  0.05388  0.04681  1.0000
  O  Te180     1.0  0.90585  0.31179  0.01720  1.0000
  Mg  Mg89      1.0  0.29141  0.99416  0.09642  1.0000
  Mg  Mg90      1.0  0.92553  0.39903  0.04990  1.0000
  C  Sn181     1.0  0.26958  0.35180  0.22970  1.0000
  C   C121      1.0  0.20651  0.32519  0.20582  1.0000
  C  Sn182     1.0  0.13796  0.30746  0.22252  1.0000
  C  Sn183     1.0  0.13233  0.31655  0.26396  1.0000
  C   C122      1.0  0.19537  0.34316  0.28782  1.0000
  C  Sn184     1.0  0.26395  0.36089  0.27114  1.0000
  O  Te181     1.0  0.33754  0.36918  0.21237  1.0000
  O  Te182     1.0  0.07568  0.28092  0.19804  1.0000
  O  Te183     1.0  0.06429  0.29914  0.28129  1.0000
  O  Te184     1.0  0.32620  0.38742  0.29560  1.0000
  Mg  Mg91      1.0  0.99538  0.26491  0.23558  1.0000
  Mg  Mg92      1.0  0.40653  0.40349  0.25809  1.0000
  C  Sn185     1.0  0.60782  0.87452  0.92016  1.0000
  C   C123      1.0  0.64386  0.85299  0.94773  1.0000
  C  Sn186     1.0  0.69789  0.83610  0.93516  1.0000
  C  Sn187     1.0  0.71633  0.84087  0.89419  1.0000
  C   C124      1.0  0.68032  0.86240  0.86665  1.0000
  C  Sn188     1.0  0.62626  0.87929  0.87919  1.0000
  O  Te185     1.0  0.55398  0.89115  0.93340  1.0000
  O  Te186     1.0  0.73314  0.81469  0.96327  1.0000
  O  Te187     1.0  0.77022  0.82421  0.88097  1.0000
  O  Te188     1.0  0.59104  0.90070  0.85111  1.0000
  Mg  Mg93      1.0  0.80275  0.79769  0.93063  1.0000
  Mg  Mg94      1.0  0.52145  0.91775  0.88371  1.0000
  C  Sn189     1.0  0.11771  0.72950  0.58624  1.0000
  C   C125      1.0  0.14515  0.78808  0.61345  1.0000
  C  Sn190     1.0  0.16798  0.86053  0.60063  1.0000
  C  Sn191     1.0  0.16323  0.87474  0.55976  1.0000
  C   C126      1.0  0.13579  0.81619  0.53257  1.0000
  C  Sn192     1.0  0.11296  0.74371  0.54537  1.0000
  O  Te189     1.0  0.09520  0.65750  0.59972  1.0000
  O  Te190     1.0  0.19525  0.91818  0.62840  1.0000
  O  Te191     1.0  0.18577  0.94681  0.54630  1.0000
  O  Te192     1.0  0.08569  0.68608  0.51763  1.0000
  Mg  Mg95      1.0  0.72164  0.00677  0.59552  1.0000
  Mg  Mg96      1.0  0.06190  0.59747  0.55048  1.0000
