data_image0
_chemical_formula_structural       C8H2C4H2C2H2N8C8H8C24NHNH2N2HC4H4NHNH2N2H5C2Sn2C2HTe2HMgC2Sn2C2HTe2HMgC2Sn2C2HTe2HMgC2Sn2C2HTe2HMgC2Sn2C2HTe2HMgC2Sn2C2HTe2HMgC2Sn2C2HTe2HMgC2Sn2C2HTe2HMgC2Sn2C2HTe2HMgC2Sn2C2HTe2HMgC2Sn2C2HTe2HMgC2Sn2C2HTe2HMgC2Sn2C2HTe2HMgC2Sn2C2HTe2HMg
_chemical_formula_sum              "C106 H58 N16 Sn28 Te28 Mg14"
_cell_length_a       25.6103
_cell_length_b       26.3755
_cell_length_c       8.1202
_cell_angle_alpha    90.2845
_cell_angle_beta     90.0076
_cell_angle_gamma    89.8193

_symmetry_space_group_name_H-M    'P1'
_space_group_IT_number       1

loop_
  _space_group_symop_operation_xyz
  'x, y, z'

loop_
  _atom_site_type_symbol
  _atom_site_label
  _atom_site_symmetry_multiplicity
  _atom_site_fract_x
  _atom_site_fract_y
  _atom_site_fract_z
  _atom_site_occupancy
  C   C1        1.0  0.24895  0.25055  0.25251  1.0000
  C   C2        1.0  0.75279  0.74900  0.74549  1.0000
  C   C3        1.0  0.71872  0.77602  0.87433  1.0000
  C   C4        1.0  0.79016  0.71879  0.85622  1.0000
  C   C5        1.0  0.73171  0.75923  0.03386  1.0000
  C   C6        1.0  0.77377  0.72191  0.02159  1.0000
  C   C7        1.0  0.70822  0.77960  0.17347  1.0000
  C   C8        1.0  0.79764  0.69347  0.14520  1.0000
  H   H1        1.0  0.72012  0.76805  0.29567  1.0000
  H   H2        1.0  0.78341  0.69547  0.27098  1.0000
  C   C9        1.0  0.67015  0.81757  0.15596  1.0000
  C   C10       1.0  0.84189  0.66415  0.10645  1.0000
  C   C11       1.0  0.65548  0.83315  0.99653  1.0000
  C   C12       1.0  0.85959  0.66294  0.94201  1.0000
  H   H3        1.0  0.62490  0.86148  0.98189  1.0000
  H   H4        1.0  0.89291  0.63955  0.90792  1.0000
  C   C13       1.0  0.67963  0.81253  0.85651  1.0000
  C   C14       1.0  0.83353  0.68903  0.81713  1.0000
  H   H5        1.0  0.66805  0.82625  0.73594  1.0000
  H   H6        1.0  0.84830  0.68582  0.69197  1.0000
  N   N1        1.0  0.34663  0.36167  0.77875  1.0000
  N   N2        1.0  0.64532  0.62125  0.27963  1.0000
  N   N3        1.0  0.15397  0.14137  0.78367  1.0000
  N   N4        1.0  0.84242  0.87599  0.24367  1.0000
  N   N5        1.0  0.64721  0.83728  0.29999  1.0000
  N   N6        1.0  0.36203  0.15431  0.72375  1.0000
  N   N7        1.0  0.87208  0.64018  0.22880  1.0000
  N   N8        1.0  0.13168  0.34087  0.72632  1.0000
  C   C15       1.0  0.39437  0.35470  0.82709  1.0000
  C   C16       1.0  0.60048  0.63184  0.21487  1.0000
  C   C17       1.0  0.10664  0.14860  0.83499  1.0000
  C   C18       1.0  0.89065  0.87061  0.20000  1.0000
  C   C19       1.0  0.64283  0.88581  0.31664  1.0000
  C   C20       1.0  0.35311  0.10924  0.66629  1.0000
  C   C21       1.0  0.85001  0.61299  0.34085  1.0000
  C   C22       1.0  0.14119  0.38557  0.66883  1.0000
  H   H7        1.0  0.42205  0.33171  0.75459  1.0000
  H   H8        1.0  0.57389  0.66042  0.26811  1.0000
  H   H9        1.0  0.07867  0.17199  0.76580  1.0000
  H   H10       1.0  0.91806  0.84781  0.27379  1.0000
  H   H11       1.0  0.65928  0.91171  0.22450  1.0000
  H   H12       1.0  0.32744  0.08234  0.73012  1.0000
  H   H13       1.0  0.80809  0.60408  0.33547  1.0000
  H   H14       1.0  0.16619  0.41255  0.73596  1.0000
  C   C23       1.0  0.47968  0.46193  0.38616  1.0000
  C   C24       1.0  0.52100  0.52528  0.65060  1.0000
  C   C25       1.0  0.02579  0.03432  0.38075  1.0000
  C   C26       1.0  0.98256  0.97206  0.64519  1.0000
  C   C27       1.0  0.53366  0.98262  0.85610  1.0000
  C   C28       1.0  0.47108  0.02680  0.12245  1.0000
  C   C29       1.0  0.97086  0.52170  0.86489  1.0000
  C   C30       1.0  0.03785  0.47385  0.11155  1.0000
  C   C31       1.0  0.45159  0.47213  0.53219  1.0000
  C   C32       1.0  0.54978  0.51407  0.50752  1.0000
  C   C33       1.0  0.05138  0.02735  0.53269  1.0000
  C   C34       1.0  0.95741  0.97863  0.49250  1.0000
  C   C35       1.0  0.52759  0.95929  0.01067  1.0000
  C   C36       1.0  0.47843  0.05107  0.97011  1.0000
  C   C37       1.0  0.98879  0.54754  0.00555  1.0000
  C   C38       1.0  0.01929  0.44790  0.97159  1.0000
  C   C39       1.0  0.47059  0.50404  0.66027  1.0000
  C   C40       1.0  0.52969  0.48412  0.37957  1.0000
  C   C41       1.0  0.03145  0.99652  0.66164  1.0000
  C   C42       1.0  0.97813  0.00808  0.36566  1.0000
  C   C43       1.0  0.49779  0.98032  0.13855  1.0000
  C   C44       1.0  0.50926  0.03059  0.83969  1.0000
  C   C45       1.0  0.02187  0.52522  0.12595  1.0000
  C   C46       1.0  0.98714  0.47082  0.85309  1.0000
  N   N9        1.0  0.43499  0.50629  0.78969  1.0000
  H   H15       1.0  0.55283  0.47937  0.26817  1.0000
  N   N10       1.0  0.06528  0.99783  0.79603  1.0000
  H   H16       1.0  0.95736  0.00928  0.24892  1.0000
  H   H17       1.0  0.49668  0.96089  0.25644  1.0000
  N   N11       1.0  0.50821  0.06315  0.70518  1.0000
  N   N12       1.0  0.03146  0.55989  0.25228  1.0000
  H   H18       1.0  0.97581  0.44914  0.74463  1.0000
  C   C47       1.0  0.39651  0.47641  0.74437  1.0000
  C   C48       1.0  0.10332  0.02835  0.75270  1.0000
  C   C49       1.0  0.47800  0.10122  0.75028  1.0000
  C   C50       1.0  0.00489  0.60081  0.21211  1.0000
  H   H19       1.0  0.36220  0.46776  0.81665  1.0000
  H   H20       1.0  0.13641  0.03885  0.82827  1.0000
  H   H21       1.0  0.46792  0.13371  0.67558  1.0000
  H   H22       1.0  0.00256  0.63538  0.28435  1.0000
  N   N13       1.0  0.40403  0.45483  0.59069  1.0000
  H   H23       1.0  0.58831  0.53077  0.49286  1.0000
  N   N14       1.0  0.09729  0.04735  0.59586  1.0000
  H   H24       1.0  0.92082  0.95895  0.46988  1.0000
  H   H25       1.0  0.54812  0.92390  0.03422  1.0000
  N   N15       1.0  0.45861  0.09602  0.90766  1.0000
  N   N16       1.0  0.97920  0.59621  0.06421  1.0000
  H   H26       1.0  0.03133  0.40878  0.95133  1.0000
  H   H27       1.0  0.38134  0.42738  0.53985  1.0000
  H   H28       1.0  0.11936  0.07515  0.54535  1.0000
  H   H29       1.0  0.43147  0.11889  0.96128  1.0000
  H   H30       1.0  0.94973  0.61963  0.02923  1.0000
  C   C51       1.0  0.33998  0.27320  0.57867  1.0000
  C   C52       1.0  0.33540  0.32407  0.62561  1.0000
  C  Sn1       1.0  0.30047  0.35608  0.54405  1.0000
  C  Sn2       1.0  0.26961  0.33669  0.41315  1.0000
  C   C53       1.0  0.27445  0.28574  0.36721  1.0000
  C   C54       1.0  0.30954  0.25404  0.44962  1.0000
  H   H31       1.0  0.36711  0.24867  0.64248  1.0000
  O  Te1       1.0  0.29640  0.40680  0.59248  1.0000
  O  Te2       1.0  0.23438  0.36784  0.32959  1.0000
  H   H32       1.0  0.31305  0.21466  0.41332  1.0000
  Mg  Mg1       1.0  0.24286  0.43427  0.44085  1.0000
  C   C55       1.0  0.72756  0.64741  0.60728  1.0000
  C   C56       1.0  0.72446  0.69965  0.63543  1.0000
  C  Sn3       1.0  0.68781  0.72901  0.55093  1.0000
  C  Sn4       1.0  0.65367  0.70553  0.43622  1.0000
  C   C57       1.0  0.65705  0.65324  0.40902  1.0000
  C   C58       1.0  0.69388  0.62422  0.49421  1.0000
  H   H33       1.0  0.75603  0.62496  0.67325  1.0000
  O  Te3       1.0  0.68526  0.78115  0.58049  1.0000
  O  Te4       1.0  0.61666  0.73397  0.35013  1.0000
  H   H34       1.0  0.69625  0.58377  0.47246  1.0000
  Mg  Mg2       1.0  0.62828  0.80377  0.43285  1.0000
  C   C59       1.0  0.17087  0.24240  0.51008  1.0000
  C   C60       1.0  0.21018  0.22584  0.40307  1.0000
  C  Sn5       1.0  0.22926  0.17626  0.41288  1.0000
  C  Sn6       1.0  0.20853  0.14273  0.53212  1.0000
  C   C61       1.0  0.16919  0.15966  0.63853  1.0000
  C   C62       1.0  0.15038  0.20935  0.62768  1.0000
  H   H35       1.0  0.15630  0.28084  0.50164  1.0000
  O  Te5       1.0  0.26856  0.16034  0.30506  1.0000
  O  Te6       1.0  0.22688  0.09298  0.54456  1.0000
  H   H36       1.0  0.11993  0.22216  0.71048  1.0000
  Mg  Mg3       1.0  0.28078  0.08900  0.37015  1.0000
  C   C63       1.0  0.77634  0.85070  0.60953  1.0000
  C   C64       1.0  0.77689  0.79799  0.62599  1.0000
  C  Sn7       1.0  0.80418  0.76783  0.51303  1.0000
  C  Sn8       1.0  0.83142  0.79099  0.38130  1.0000
  C   C65       1.0  0.83066  0.84377  0.36597  1.0000
  C   C66       1.0  0.80321  0.87358  0.47967  1.0000
  H   H37       1.0  0.75513  0.87377  0.69754  1.0000
  O  Te7       1.0  0.80431  0.71522  0.53126  1.0000
  O  Te8       1.0  0.85903  0.76176  0.26669  1.0000
  H   H38       1.0  0.80282  0.91439  0.46695  1.0000
  Mg  Mg4       1.0  0.84756  0.69156  0.34368  1.0000
  C   C67       1.0  0.36063  0.21808  0.99723  1.0000
  C   C68       1.0  0.34359  0.17952  0.89172  1.0000
  C  Sn9       1.0  0.29268  0.16101  0.90387  1.0000
  C  Sn10      1.0  0.25825  0.18005  0.02395  1.0000
  C   C69       1.0  0.27566  0.21865  0.12885  1.0000
  C   C70       1.0  0.32668  0.23687  0.11566  1.0000
  H   H39       1.0  0.40010  0.23220  0.98698  1.0000
  O  Te9       1.0  0.27630  0.12246  0.79752  1.0000
  O  Te10      1.0  0.20716  0.16228  0.03872  1.0000
  H   H40       1.0  0.33986  0.26675  0.19730  1.0000
  Mg  Mg5       1.0  0.20306  0.11082  0.86565  1.0000
  C   C71       1.0  0.22283  0.33803  0.92600  1.0000
  C   C72       1.0  0.17264  0.32749  0.86786  1.0000
  C  Sn11      1.0  0.14048  0.29381  0.95261  1.0000
  C  Sn12      1.0  0.15898  0.26878  0.09825  1.0000
  C   C73       1.0  0.20923  0.27961  0.15547  1.0000
  C   C74       1.0  0.24109  0.31336  0.06967  1.0000
  H   H41       1.0  0.24747  0.36417  0.85968  1.0000
  O  Te11      1.0  0.09045  0.28369  0.89279  1.0000
  O  Te12      1.0  0.12764  0.23498  0.18540  1.0000
  H   H42       1.0  0.27993  0.32154  0.11477  1.0000
  Mg  Mg6       1.0  0.06238  0.23338  0.05474  1.0000
  C   C75       1.0  0.39187  0.42792  0.19311  1.0000
  C   C76       1.0  0.44360  0.43111  0.24680  1.0000
  C  Sn13      1.0  0.48351  0.40757  0.15716  1.0000
  C  Sn14      1.0  0.47129  0.38036  0.01107  1.0000
  C   C77       1.0  0.41945  0.37894  0.95833  1.0000
  C   C78       1.0  0.37977  0.40110  0.04901  1.0000
  H   H43       1.0  0.36120  0.44627  0.26321  1.0000
  O  Te13      1.0  0.53499  0.41113  0.21258  1.0000
  O  Te14      1.0  0.51045  0.35802  0.91908  1.0000
  H   H44       1.0  0.33972  0.39865  0.00735  1.0000
  Mg  Mg7       1.0  0.57466  0.37214  0.04488  1.0000
  C   C79       1.0  0.50846  0.59869  0.91076  1.0000
  C   C80       1.0  0.53426  0.56556  0.80314  1.0000
  C  Sn15      1.0  0.58608  0.55162  0.83266  1.0000
  C  Sn16      1.0  0.61246  0.57127  0.97266  1.0000
  C   C81       1.0  0.58626  0.60283  0.07965  1.0000
  C   C82       1.0  0.53440  0.61654  0.04891  1.0000
  H   H45       1.0  0.46833  0.60929  0.88704  1.0000
  O  Te15      1.0  0.61128  0.51850  0.72385  1.0000
  O  Te16      1.0  0.66422  0.55641  0.00513  1.0000
  H   H46       1.0  0.51442  0.64217  0.13232  1.0000
  Mg  Mg8       1.0  0.68192  0.51160  0.82070  1.0000
  C   C83       1.0  0.02115  0.11347  0.02773  1.0000
  C   C84       1.0  0.07292  0.12622  0.98762  1.0000
  C  Sn17      1.0  0.11388  0.10360  0.07812  1.0000
  C  Sn18      1.0  0.10275  0.07068  0.21115  1.0000
  C   C85       1.0  0.05086  0.05967  0.25023  1.0000
  C   C86       1.0  0.01013  0.08099  0.15889  1.0000
  H   H47       1.0  0.98967  0.13147  0.95701  1.0000
  O  Te17      1.0  0.16535  0.11522  0.03642  1.0000
  O  Te18      1.0  0.14298  0.04906  0.30361  1.0000
  H   H48       1.0  0.97008  0.07227  0.18991  1.0000
  Mg  Mg9       1.0  0.20674  0.07642  0.19915  1.0000
  C   C87       1.0  0.99164  0.91551  0.94644  1.0000
  C   C88       1.0  0.96762  0.93539  0.80624  1.0000
  C  Sn19      1.0  0.91323  0.93572  0.79275  1.0000
  C  Sn20      1.0  0.88242  0.91577  0.92224  1.0000
  C   C89       1.0  0.90679  0.89448  0.06204  1.0000
  C   C90       1.0  0.96124  0.89432  0.07424  1.0000
  H   H49       1.0  0.03377  0.91541  0.95593  1.0000
  O  Te19      1.0  0.88987  0.95570  0.65180  1.0000
  O  Te20      1.0  0.82799  0.91565  0.91198  1.0000
  H   H50       1.0  0.97983  0.87896  0.18285  1.0000
  Mg  Mg10      1.0  0.81432  0.94705  0.69517  1.0000
  C   C91       1.0  0.56993  0.89235  0.68859  1.0000
  C   C92       1.0  0.56529  0.94393  0.72623  1.0000
  C  Sn21      1.0  0.58587  0.98027  0.62001  1.0000
  C  Sn22      1.0  0.61154  0.96457  0.47347  1.0000
  C   C93       1.0  0.61594  0.91288  0.43687  1.0000
  C   C94       1.0  0.59522  0.87684  0.54405  1.0000
  H   H51       1.0  0.55387  0.86446  0.77146  1.0000
  O  Te21      1.0  0.58416  0.03164  0.65952  1.0000
  O  Te22      1.0  0.63245  0.00009  0.36510  1.0000
  H   H52       1.0  0.59878  0.83691  0.51482  1.0000
  Mg  Mg11      1.0  0.61909  0.06569  0.47285  1.0000
  C   C95       1.0  0.38367  0.02594  0.46298  1.0000
  C   C96       1.0  0.38086  0.07595  0.52006  1.0000
  C  Sn23      1.0  0.40644  0.11461  0.43547  1.0000
  C  Sn24      1.0  0.43532  0.10287  0.29105  1.0000
  C   C97       1.0  0.43786  0.05273  0.23489  1.0000
  C   C98       1.0  0.41213  0.01434  0.32052  1.0000
  H   H53       1.0  0.36049  0.99624  0.52917  1.0000
  O  Te23      1.0  0.40324  0.16436  0.49423  1.0000
  O  Te24      1.0  0.46124  0.14078  0.20409  1.0000
  H   H54       1.0  0.41103  0.97563  0.27623  1.0000
  Mg  Mg12      1.0  0.44528  0.20284  0.33301  1.0000
  C   C99       1.0  0.88057  0.52318  0.65143  1.0000
  C   C100      1.0  0.92871  0.53810  0.71631  1.0000
  C  Sn25      1.0  0.95175  0.58337  0.66570  1.0000
  C  Sn26      1.0  0.92603  0.61419  0.54796  1.0000
  C   C101      1.0  0.87787  0.59895  0.48387  1.0000
  C   C102      1.0  0.85517  0.55357  0.53534  1.0000
  H   H55       1.0  0.86299  0.48809  0.69131  1.0000
  O  Te25      1.0  0.99987  0.59770  0.73172  1.0000
  O  Te26      1.0  0.94817  0.65963  0.49526  1.0000
  H   H56       1.0  0.81788  0.54204  0.48516  1.0000
  Mg  Mg13      1.0  0.01431  0.66293  0.62110  1.0000
  C   C103      1.0  0.07983  0.37335  0.37277  1.0000
  C   C104      1.0  0.11485  0.39513  0.48434  1.0000
  C  Sn27      1.0  0.12616  0.44685  0.47646  1.0000
  C  Sn28      1.0  0.10189  0.47722  0.35451  1.0000
  C   C105      1.0  0.06690  0.45507  0.24352  1.0000
  C   C106      1.0  0.05587  0.40328  0.25248  1.0000
  H   H57       1.0  0.07128  0.33328  0.37974  1.0000
  O  Te27      1.0  0.16124  0.46800  0.58886  1.0000
  O  Te28      1.0  0.11248  0.52901  0.34390  1.0000
  H   H58       1.0  0.02874  0.38643  0.16614  1.0000
  Mg  Mg14      1.0  0.16306  0.54033  0.52471  1.0000
