data_image0
_chemical_formula_structural       Si6C2HCHC2HCHC6H6N6C6H3C3H3C6H3C3H3C4H2C2H2C4H2C2H2C6H6N6C8H4C4H4C8H4C4H4C4H2C2H2C4H2C2H2C6H6N6C8H4C4H4C8H4C4H4C10H5C5H5C10H5C5H5C6H6N6C6H3C3H3C6H3C3H3C8Sn2C2HTe2HMgC2Sn2C2HTe2HMgC2Sn2C2HTe2HMgC2Sn2C2HTe2HMgC2Sn2C2HTe2HMgC2Sn2C2HTe2HMgC2Sn2C2HTe2HMgC2Sn2C2HTe2HMgC2Sn2C2HTe2HMgC2Sn2C2HTe2HMgC2Sn2C2HTe2HMgC2Sn2C2HTe2HMgC2Sn2C2HTe2HMgC2Sn2C2HTe2HMgC2Sn2C2HTe2HMgC2Sn2C2HTe2HMgC2Sn2C2HTe2HMgC2Sn2C2HTe2HMgC2Sn2C2HTe2HMgC2Sn2C2HTe2HMgC2Sn2C2HTe2HMgC2Sn2C2HTe2HMgC2Sn2C2HTe2HMgC2Sn2C2HTe2HMg
_chemical_formula_sum              "Si6 C270 H168 N24 Sn48 Te48 Mg24"
_cell_length_a       20.7766
_cell_length_b       20.7243
_cell_length_c       33.6119
_cell_angle_alpha    89.8731
_cell_angle_beta     89.8384
_cell_angle_gamma    119.908

_symmetry_space_group_name_H-M    'P1'
_space_group_IT_number       1

loop_
  _space_group_symop_operation_xyz
  'x, y, z'

loop_
  _atom_site_type_symbol
  _atom_site_label
  _atom_site_symmetry_multiplicity
  _atom_site_fract_x
  _atom_site_fract_y
  _atom_site_fract_z
  _atom_site_occupancy
  Si  Si1       1.0  0.86752  0.66327  0.45767  1.0000
  Si  Si2       1.0  0.33361  0.20062  0.12109  1.0000
  Si  Si3       1.0  0.79520  0.13241  0.78868  1.0000
  Si  Si4       1.0  0.13230  0.33454  0.95722  1.0000
  Si  Si5       1.0  0.66749  0.79985  0.62173  1.0000
  Si  Si6       1.0  0.20237  0.86447  0.28791  1.0000
  C   C1        1.0  0.23061  0.37858  0.93866  1.0000
  C   C2        1.0  0.28282  0.45279  0.94893  1.0000
  H   H1        1.0  0.26547  0.48453  0.96745  1.0000
  C   C3        1.0  0.35614  0.48653  0.93594  1.0000
  H   H2        1.0  0.39644  0.54357  0.94389  1.0000
  C   C4        1.0  0.37961  0.44650  0.91198  1.0000
  C   C5        1.0  0.32879  0.37230  0.90221  1.0000
  H   H3        1.0  0.34752  0.34137  0.88399  1.0000
  C   C6        1.0  0.25519  0.33897  0.91515  1.0000
  H   H4        1.0  0.21647  0.28171  0.90683  1.0000
  C   C7        1.0  0.54953  0.52395  0.39038  1.0000
  C   C8        1.0  0.47772  0.02082  0.06128  1.0000
  C   C9        1.0  0.97758  0.45517  0.72611  1.0000
  C   C10       1.0  0.45489  0.48032  0.89595  1.0000
  C   C11       1.0  0.52277  0.97766  0.55939  1.0000
  C   C12       1.0  0.01829  0.54159  0.22834  1.0000
  H   H5        1.0  0.53786  0.56209  0.37303  1.0000
  H   H6        1.0  0.43938  0.96715  0.04736  1.0000
  H   H7        1.0  0.02990  0.46849  0.71101  1.0000
  H   H8        1.0  0.46986  0.44223  0.88121  1.0000
  H   H9        1.0  0.56107  0.03067  0.54457  1.0000
  H   H10       1.0  0.96432  0.52673  0.21504  1.0000
  N   N1        1.0  0.50082  0.45445  0.39439  1.0000
  N   N2        1.0  0.54837  0.04608  0.06170  1.0000
  N   N3        1.0  0.95489  0.50276  0.72800  1.0000
  N   N4        1.0  0.50088  0.55095  0.89717  1.0000
  N   N5        1.0  0.45221  0.95319  0.56062  1.0000
  N   N6        1.0  0.04388  0.49624  0.22780  1.0000
  C   C13       1.0  0.42961  0.42849  0.37885  1.0000
  C   C14       1.0  0.57476  0.00082  0.04625  1.0000
  C   C15       1.0  0.99887  0.42491  0.21223  1.0000
  C   C16       1.0  0.38857  0.46460  0.38551  1.0000
  C   C17       1.0  0.54419  0.92561  0.05691  1.0000
  C   C18       1.0  0.92291  0.38152  0.22124  1.0000
  H   H11       1.0  0.41256  0.51489  0.40342  1.0000
  H   H12       1.0  0.49892  0.90119  0.07844  1.0000
  H   H13       1.0  0.89779  0.40317  0.24178  1.0000
  C   C19       1.0  0.31649  0.43490  0.37072  1.0000
  C   C20       1.0  0.57304  0.88293  0.04114  1.0000
  C   C21       1.0  0.88047  0.31019  0.20539  1.0000
  H   H14       1.0  0.28522  0.46281  0.37726  1.0000
  H   H15       1.0  0.54931  0.82528  0.05046  1.0000
  H   H16       1.0  0.82223  0.27726  0.21357  1.0000
  C   C22       1.0  0.28407  0.36976  0.34808  1.0000
  C   C23       1.0  0.63178  0.91322  0.01374  1.0000
  C   C24       1.0  0.91230  0.28059  0.17980  1.0000
  C   C25       1.0  0.32609  0.33455  0.34128  1.0000
  C   C26       1.0  0.66213  0.98879  0.00345  1.0000
  C   C27       1.0  0.98857  0.32444  0.17118  1.0000
  H   H17       1.0  0.30234  0.28413  0.32351  1.0000
  H   H18       1.0  0.70791  0.01396  0.98231  1.0000
  H   H19       1.0  0.01459  0.30221  0.15169  1.0000
  C   C28       1.0  0.39668  0.36186  0.35695  1.0000
  C   C29       1.0  0.63548  0.03253  0.01974  1.0000
  C   C30       1.0  0.03178  0.39466  0.18743  1.0000
  H   H20       1.0  0.42760  0.33284  0.35239  1.0000
  H   H21       1.0  0.66006  0.09108  0.01184  1.0000
  H   H22       1.0  0.09096  0.42724  0.18110  1.0000
  C   C31       1.0  0.38993  0.30011  0.10405  1.0000
  C   C32       1.0  0.30108  0.90477  0.26994  1.0000
  C   C33       1.0  0.45433  0.32376  0.08084  1.0000
  C   C34       1.0  0.32500  0.86136  0.24939  1.0000
  H   H23       1.0  0.47341  0.28483  0.07384  1.0000
  H   H24       1.0  0.28637  0.80266  0.24418  1.0000
  C   C35       1.0  0.49421  0.39652  0.06647  1.0000
  C   C36       1.0  0.39754  0.89249  0.23497  1.0000
  H   H25       1.0  0.54436  0.41410  0.04886  1.0000
  H   H26       1.0  0.41500  0.85778  0.21931  1.0000
  C   C37       1.0  0.46946  0.44734  0.07370  1.0000
  C   C38       1.0  0.44806  0.96884  0.23950  1.0000
  C   C39       1.0  0.40517  0.42446  0.09703  1.0000
  C   C40       1.0  0.42498  0.01278  0.26034  1.0000
  H   H27       1.0  0.38674  0.46433  0.10302  1.0000
  H   H28       1.0  0.46452  0.07174  0.26424  1.0000
  C   C41       1.0  0.36666  0.35228  0.11222  1.0000
  C   C42       1.0  0.35312  0.98102  0.27558  1.0000
  H   H29       1.0  0.31721  0.33632  0.13026  1.0000
  H   H30       1.0  0.33685  0.01655  0.29145  1.0000
  C   C43       1.0  0.00781  0.48476  0.38981  1.0000
  C   C44       1.0  0.51166  0.52177  0.05632  1.0000
  C   C45       1.0  0.47743  0.99014  0.72175  1.0000
  C   C46       1.0  0.99155  0.51613  0.89445  1.0000
  C   C47       1.0  0.48668  0.48209  0.55255  1.0000
  C   C48       1.0  0.52227  0.00027  0.22192  1.0000
  H   H31       1.0  0.96773  0.42915  0.37849  1.0000
  H   H32       1.0  0.56662  0.53646  0.04423  1.0000
  H   H33       1.0  0.46150  0.03021  0.71061  1.0000
  H   H34       1.0  0.03167  0.57158  0.88266  1.0000
  H   H35       1.0  0.43102  0.46753  0.54184  1.0000
  H   H36       1.0  0.53783  0.95968  0.21121  1.0000
  N   N7        1.0  0.07842  0.51119  0.38613  1.0000
  N   N8        1.0  0.48660  0.56747  0.05386  1.0000
  N   N9        1.0  0.43326  0.91937  0.71849  1.0000
  N   N10       1.0  0.92090  0.48991  0.89144  1.0000
  N   N11       1.0  0.51220  0.43706  0.54832  1.0000
  N   N12       1.0  0.56650  0.07102  0.21806  1.0000
  C   C49       1.0  0.10370  0.46425  0.37165  1.0000
  C   C50       1.0  0.53429  0.63933  0.03898  1.0000
  C   C51       1.0  0.46532  0.36511  0.53365  1.0000
  C   C52       1.0  0.63865  0.09692  0.20340  1.0000
  C   C53       1.0  0.07563  0.39124  0.38589  1.0000
  C   C54       1.0  0.60882  0.68180  0.05074  1.0000
  C   C55       1.0  0.39036  0.32171  0.54494  1.0000
  C   C56       1.0  0.68379  0.06838  0.21641  1.0000
  H   H37       1.0  0.03164  0.36962  0.40818  1.0000
  H   H38       1.0  0.63106  0.65812  0.07182  1.0000
  H   H39       1.0  0.36589  0.34503  0.56483  1.0000
  H   H40       1.0  0.66185  0.02334  0.23814  1.0000
  C   C57       1.0  0.10599  0.34784  0.37326  1.0000
  C   C58       1.0  0.65326  0.75494  0.03721  1.0000
  C   C59       1.0  0.34796  0.24785  0.53253  1.0000
  C   C60       1.0  0.75737  0.09970  0.20339  1.0000
  H   H41       1.0  0.08402  0.29224  0.38557  1.0000
  H   H42       1.0  0.71016  0.78674  0.04762  1.0000
  H   H43       1.0  0.29069  0.21537  0.54250  1.0000
  H   H44       1.0  0.79110  0.07711  0.21463  1.0000
  C   C61       1.0  0.16444  0.37530  0.34571  1.0000
  C   C62       1.0  0.62504  0.78764  0.01132  1.0000
  C   C63       1.0  0.37840  0.21484  0.50837  1.0000
  C   C64       1.0  0.78813  0.15993  0.17686  1.0000
  C   C65       1.0  0.19003  0.44735  0.33020  1.0000
  C   C66       1.0  0.55123  0.74362  0.99828  1.0000
  C   C67       1.0  0.45231  0.25984  0.49530  1.0000
  C   C68       1.0  0.74157  0.18607  0.16249  1.0000
  H   H45       1.0  0.23406  0.46911  0.30792  1.0000
  H   H46       1.0  0.52884  0.76745  0.97735  1.0000
  H   H47       1.0  0.47654  0.23635  0.47534  1.0000
  H   H48       1.0  0.76363  0.23123  0.14080  1.0000
  C   C69       1.0  0.16170  0.49177  0.34344  1.0000
  C   C70       1.0  0.50603  0.67162  0.01240  1.0000
  C   C71       1.0  0.49546  0.33289  0.50818  1.0000
  C   C72       1.0  0.66893  0.15657  0.17603  1.0000
  H   H49       1.0  0.18339  0.54805  0.33205  1.0000
  H   H50       1.0  0.44851  0.63903  0.00297  1.0000
  H   H51       1.0  0.55304  0.36651  0.49872  1.0000
  H   H52       1.0  0.63431  0.17876  0.16555  1.0000
  C   C73       1.0  0.92441  0.76017  0.43681  1.0000
  C   C74       1.0  0.16326  0.92216  0.26745  1.0000
  C   C75       1.0  0.91564  0.81850  0.45254  1.0000
  C   C76       1.0  0.09638  0.91424  0.28300  1.0000
  H   H53       1.0  0.87491  0.80622  0.47602  1.0000
  H   H54       1.0  0.06744  0.87392  0.30668  1.0000
  C   C77       1.0  0.95734  0.89130  0.43868  1.0000
  C   C78       1.0  0.06611  0.95623  0.26853  1.0000
  H   H55       1.0  0.94990  0.93568  0.45102  1.0000
  H   H56       1.0  0.01415  0.94925  0.28031  1.0000
  C   C79       1.0  0.00968  0.90828  0.40790  1.0000
  C   C80       1.0  0.10247  0.00848  0.23778  1.0000
  C   C81       1.0  0.01792  0.85041  0.39163  1.0000
  C   C82       1.0  0.16844  0.01603  0.22184  1.0000
  H   H57       1.0  0.05894  0.86323  0.36827  1.0000
  H   H58       1.0  0.19735  0.05709  0.19855  1.0000
  C   C83       1.0  0.97607  0.77762  0.40582  1.0000
  C   C84       1.0  0.19829  0.97352  0.23635  1.0000
  H   H59       1.0  0.98465  0.73436  0.39295  1.0000
  H   H60       1.0  0.25000  0.98147  0.22366  1.0000
  C   C85       1.0  0.05422  0.98335  0.39156  1.0000
  C   C86       1.0  0.01759  0.07079  0.05312  1.0000
  C   C87       1.0  0.92663  0.94741  0.71817  1.0000
  C   C88       1.0  0.94311  0.01675  0.89019  1.0000
  C   C89       1.0  0.98696  0.93100  0.55550  1.0000
  C   C90       1.0  0.07342  0.05433  0.22157  1.0000
  H   H61       1.0  0.08608  0.98800  0.36444  1.0000
  H   H62       1.0  0.01216  0.10167  0.02787  1.0000
  H   H63       1.0  0.89971  0.91681  0.69081  1.0000
  H   H64       1.0  0.90704  0.01141  0.86499  1.0000
  H   H65       1.0  0.99170  0.90108  0.52964  1.0000
  H   H66       1.0  0.10332  0.08893  0.19559  1.0000
  N   N13       1.0  0.05629  0.04108  0.40750  1.0000
  N   N14       1.0  0.96108  0.01258  0.06809  1.0000
  N   N15       1.0  0.98208  0.94512  0.73391  1.0000
  N   N16       1.0  0.94463  0.95992  0.90497  1.0000
  N   N17       1.0  0.04425  0.98834  0.57023  1.0000
  N   N18       1.0  0.01648  0.05477  0.23682  1.0000
  C   C91       1.0  0.09392  0.10974  0.38750  1.0000
  C   C92       1.0  0.01493  0.90889  0.71449  1.0000
  C   C93       1.0  0.90634  0.89088  0.88589  1.0000
  C   C94       1.0  0.11285  0.01855  0.55036  1.0000
  C   C95       1.0  0.13249  0.17522  0.41013  1.0000
  C   C96       1.0  0.03960  0.86928  0.73810  1.0000
  C   C97       1.0  0.86901  0.82593  0.90935  1.0000
  C   C98       1.0  0.17816  0.04812  0.57324  1.0000
  H   H67       1.0  0.13443  0.17038  0.44229  1.0000
  H   H68       1.0  0.02912  0.86573  0.76999  1.0000
  H   H69       1.0  0.86823  0.83151  0.94150  1.0000
  H   H70       1.0  0.17315  0.04322  0.60548  1.0000
  C   C99       1.0  0.16847  0.24451  0.39157  1.0000
  C   C100      1.0  0.07502  0.83434  0.72092  1.0000
  C   C101      1.0  0.83291  0.75630  0.89155  1.0000
  C   C102      1.0  0.24750  0.08231  0.55494  1.0000
  H   H71       1.0  0.19994  0.29428  0.40945  1.0000
  H   H72       1.0  0.09106  0.80179  0.73959  1.0000
  H   H73       1.0  0.80234  0.70684  0.91000  1.0000
  H   H74       1.0  0.29720  0.10338  0.57309  1.0000
  C   C103      1.0  0.16473  0.25232  0.35004  1.0000
  C   C104      1.0  0.09066  0.83974  0.67979  1.0000
  C   C105      1.0  0.83565  0.74770  0.85006  1.0000
  C   C106      1.0  0.25546  0.09140  0.51329  1.0000
  C   C107      1.0  0.12618  0.18698  0.32776  1.0000
  C   C108      1.0  0.06682  0.88007  0.65656  1.0000
  C   C109      1.0  0.87298  0.81249  0.82697  1.0000
  C   C110      1.0  0.19031  0.06119  0.49069  1.0000
  H   H75       1.0  0.12177  0.18976  0.29565  1.0000
  H   H76       1.0  0.07756  0.88632  0.62473  1.0000
  H   H77       1.0  0.87644  0.80884  0.79486  1.0000
  H   H78       1.0  0.19309  0.06631  0.45846  1.0000
  C   C111      1.0  0.09163  0.11680  0.34598  1.0000
  C   C112      1.0  0.02918  0.91379  0.67333  1.0000
  C   C113      1.0  0.90734  0.88309  0.84440  1.0000
  C   C114      1.0  0.12012  0.02505  0.50872  1.0000
  H   H79       1.0  0.06076  0.06750  0.32767  1.0000
  H   H80       1.0  0.01329  0.94599  0.65422  1.0000
  H   H81       1.0  0.93763  0.93216  0.82562  1.0000
  H   H82       1.0  0.07105  0.00473  0.49010  1.0000
  C   C115      1.0  0.86755  0.67339  0.51334  1.0000
  C   C116      1.0  0.80324  0.13245  0.84438  1.0000
  C   C117      1.0  0.13385  0.32682  0.01301  1.0000
  C   C118      1.0  0.67579  0.80805  0.67749  1.0000
  C   C119      1.0  0.19521  0.86485  0.34374  1.0000
  C   C120      1.0  0.80120  0.63572  0.53566  1.0000
  C   C121      1.0  0.83070  0.19906  0.86626  1.0000
  C   C122      1.0  0.20037  0.36696  0.03469  1.0000
  C   C123      1.0  0.63681  0.83561  0.69960  1.0000
  C   C124      1.0  0.16512  0.79795  0.36584  1.0000
  H   H83       1.0  0.74883  0.60029  0.52068  1.0000
  H   H84       1.0  0.84676  0.25123  0.85087  1.0000
  H   H85       1.0  0.25200  0.40415  0.01928  1.0000
  H   H86       1.0  0.60052  0.85146  0.68448  1.0000
  H   H87       1.0  0.14743  0.74539  0.35072  1.0000
  C   C125      1.0  0.80088  0.64429  0.57663  1.0000
  C   C126      1.0  0.83932  0.19995  0.90726  1.0000
  C   C127      1.0  0.20197  0.35917  0.07567  1.0000
  C   C128      1.0  0.64475  0.84439  0.74058  1.0000
  C   C129      1.0  0.15624  0.79740  0.40684  1.0000
  H   H88       1.0  0.74979  0.61467  0.59374  1.0000
  H   H89       1.0  0.86060  0.25137  0.92399  1.0000
  H   H90       1.0  0.25324  0.39048  0.09223  1.0000
  H   H91       1.0  0.61436  0.86542  0.75735  1.0000
  H   H92       1.0  0.13305  0.74579  0.42374  1.0000
  C   C130      1.0  0.86653  0.69336  0.59678  1.0000
  C   C131      1.0  0.82286  0.13430  0.92786  1.0000
  C   C132      1.0  0.13733  0.30885  0.09655  1.0000
  C   C133      1.0  0.69387  0.82802  0.76107  1.0000
  C   C134      1.0  0.17525  0.86368  0.42725  1.0000
  C   C135      1.0  0.93303  0.73161  0.57486  1.0000
  C   C136      1.0  0.79444  0.06735  0.90649  1.0000
  C   C137      1.0  0.07050  0.26901  0.07537  1.0000
  C   C138      1.0  0.73339  0.80095  0.73934  1.0000
  C   C139      1.0  0.20577  0.93085  0.40562  1.0000
  H   H93       1.0  0.98446  0.76983  0.58993  1.0000
  H   H94       1.0  0.78036  0.01579  0.92204  1.0000
  H   H95       1.0  0.01972  0.23018  0.09102  1.0000
  H   H96       1.0  0.77148  0.78767  0.75466  1.0000
  H   H97       1.0  0.22161  0.98287  0.42098  1.0000
  C   C140      1.0  0.93355  0.72092  0.53388  1.0000
  C   C141      1.0  0.78425  0.06642  0.86544  1.0000
  C   C142      1.0  0.06877  0.27864  0.03435  1.0000
  C   C143      1.0  0.72383  0.79045  0.69831  1.0000
  C   C144      1.0  0.21620  0.93135  0.36456  1.0000
  H   H98       1.0  0.98587  0.75150  0.51772  1.0000
  H   H99       1.0  0.76273  0.01383  0.84967  1.0000
  H   H100      1.0  0.01629  0.24684  0.01875  1.0000
  H   H101      1.0  0.75515  0.76930  0.68237  1.0000
  H   H102      1.0  0.23996  0.98416  0.34861  1.0000
  C   C145      1.0  0.86580  0.70515  0.63963  1.0000
  C   C146      1.0  0.29391  0.15815  0.30291  1.0000
  C   C147      1.0  0.83595  0.13519  0.97056  1.0000
  C   C148      1.0  0.13908  0.29781  0.13940  1.0000
  C   C149      1.0  0.70401  0.83856  0.80407  1.0000
  C   C150      1.0  0.16366  0.86337  0.47012  1.0000
  H   H103      1.0  0.91620  0.75222  0.65216  1.0000
  H   H104      1.0  0.24679  0.16122  0.31587  1.0000
  H   H105      1.0  0.83168  0.08415  0.98318  1.0000
  H   H106      1.0  0.08878  0.25104  0.15250  1.0000
  H   H107      1.0  0.75084  0.83478  0.81669  1.0000
  H   H108      1.0  0.17166  0.91564  0.48296  1.0000
  N   N19       1.0  0.80841  0.66175  0.66109  1.0000
  N   N20       1.0  0.33821  0.14479  0.32384  1.0000
  N   N21       1.0  0.85130  0.19309  0.99178  1.0000
  N   N22       1.0  0.19676  0.34138  0.16037  1.0000
  N   N23       1.0  0.65979  0.85136  0.82555  1.0000
  N   N24       1.0  0.14567  0.80467  0.49144  1.0000
  C   C151      1.0  0.85708  0.19135  0.03330  1.0000
  C   C152      1.0  0.19525  0.33531  0.20201  1.0000
  C   C153      1.0  0.14206  0.80706  0.53307  1.0000
  C   C154      1.0  0.82709  0.12600  0.05669  1.0000
  C   C155      1.0  0.12987  0.30197  0.22532  1.0000
  C   C156      1.0  0.17628  0.87257  0.55606  1.0000
  H   H109      1.0  0.79709  0.07145  0.04294  1.0000
  H   H110      1.0  0.07569  0.27860  0.21138  1.0000
  H   H111      1.0  0.20795  0.92683  0.54194  1.0000
  C   C157      1.0  0.83244  0.13060  0.09788  1.0000
  C   C158      1.0  0.13399  0.30157  0.26656  1.0000
  C   C159      1.0  0.17268  0.86847  0.59732  1.0000
  H   H112      1.0  0.80630  0.07949  0.11535  1.0000
  H   H113      1.0  0.08288  0.27819  0.28389  1.0000
  H   H114      1.0  0.20207  0.91963  0.61437  1.0000
  C   C160      1.0  0.86919  0.19961  0.11758  1.0000
  C   C161      1.0  0.20262  0.33236  0.28641  1.0000
  C   C162      1.0  0.13305  0.79989  0.61755  1.0000
  C   C163      1.0  0.89727  0.26424  0.09424  1.0000
  C   C164      1.0  0.26737  0.36723  0.26316  1.0000
  C   C165      1.0  0.10044  0.73498  0.59459  1.0000
  H   H115      1.0  0.92367  0.31845  0.10838  1.0000
  H   H116      1.0  0.32132  0.39410  0.27748  1.0000
  H   H117      1.0  0.07129  0.68089  0.60907  1.0000
  C   C166      1.0  0.89077  0.26020  0.05290  1.0000
  C   C167      1.0  0.26388  0.36935  0.22174  1.0000
  C   C168      1.0  0.10542  0.73844  0.55315  1.0000
  H   H118      1.0  0.91133  0.31049  0.03499  1.0000
  H   H119      1.0  0.31450  0.39743  0.20401  1.0000
  H   H120      1.0  0.08069  0.68777  0.53556  1.0000
  C   C169      1.0  0.79701  0.66768  0.83308  1.0000
  C   C170      1.0  0.33527  0.13220  0.49571  1.0000
  C   C171      1.0  0.87043  0.20040  0.16345  1.0000
  C   C172      1.0  0.20361  0.33206  0.33231  1.0000
  C   C173      1.0  0.66866  0.86974  0.99742  1.0000
  C   C174      1.0  0.13151  0.79977  0.66343  1.0000
  C   C175      1.0  0.92741  0.15817  0.23167  1.0000
  C   C176      1.0  0.91992  0.16913  0.19129  1.0000
  C  Sn1       1.0  0.94291  0.13650  0.16239  1.0000
  C  Sn2       1.0  0.97395  0.09208  0.17422  1.0000
  C   C177      1.0  0.98116  0.08141  0.21469  1.0000
  C   C178      1.0  0.95799  0.11434  0.24337  1.0000
  H   H121      1.0  0.90945  0.18362  0.25386  1.0000
  O  Te1       1.0  0.93505  0.14805  0.12218  1.0000
  O  Te2       1.0  0.99736  0.05879  0.14596  1.0000
  H   H122      1.0  0.96375  0.10580  0.27463  1.0000
  Mg  Mg1       1.0  0.97514  0.09096  0.09480  1.0000
  C   C179      1.0  0.91399  0.07442  0.78426  1.0000
  C   C180      1.0  0.85290  0.07974  0.77138  1.0000
  C  Sn3       1.0  0.80907  0.03543  0.74012  1.0000
  C  Sn4       1.0  0.32420  0.98490  0.72148  1.0000
  C   C181      1.0  0.38540  0.97996  0.73461  1.0000
  C   C182      1.0  0.93155  0.02458  0.76590  1.0000
  H   H123      1.0  0.94763  0.10891  0.80849  1.0000
  O  Te3       1.0  0.74824  0.04147  0.72762  1.0000
  O  Te4       1.0  0.28131  0.93994  0.69019  1.0000
  H   H124      1.0  0.97882  0.02041  0.77589  1.0000
  Mg  Mg2       1.0  0.20400  0.96839  0.68378  1.0000
  C   C183      1.0  0.82229  0.50842  0.84266  1.0000
  C   C184      1.0  0.88235  0.52821  0.86809  1.0000
  C  Sn5       1.0  0.91970  0.59928  0.88477  1.0000
  C  Sn6       1.0  0.89636  0.65136  0.87578  1.0000
  C   C185      1.0  0.83618  0.63100  0.85033  1.0000
  C   C186      1.0  0.79921  0.55974  0.83379  1.0000
  H   H125      1.0  0.79366  0.45327  0.82988  1.0000
  O  Te5       1.0  0.97962  0.61815  0.91011  1.0000
  O  Te6       1.0  0.93269  0.72276  0.89205  1.0000
  H   H126      1.0  0.75268  0.54442  0.81412  1.0000
  Mg  Mg3       1.0  0.01135  0.72222  0.92493  1.0000
  C   C187      1.0  0.46865  0.16450  0.11366  1.0000
  C   C188      1.0  0.39864  0.15493  0.10510  1.0000
  C  Sn7       1.0  0.34794  0.09400  0.08273  1.0000
  C  Sn8       1.0  0.36784  0.04174  0.06872  1.0000
  C   C189      1.0  0.43800  0.05178  0.07747  1.0000
  C   C190      1.0  0.48832  0.11297  0.09986  1.0000
  H   H127      1.0  0.50758  0.21181  0.13101  1.0000
  O  Te7       1.0  0.27824  0.08530  0.07444  1.0000
  O  Te8       1.0  0.81558  0.98032  0.04631  1.0000
  H   H128      1.0  0.54250  0.12033  0.10651  1.0000
  Mg  Mg4       1.0  0.72717  0.99261  0.04276  1.0000
  C   C191      1.0  0.11815  0.67410  0.71250  1.0000
  C   C192      1.0  0.09809  0.71236  0.68552  1.0000
  C  Sn9       1.0  0.02452  0.68127  0.67297  1.0000
  C  Sn10      1.0  0.97016  0.61056  0.68776  1.0000
  C   C193      1.0  0.99078  0.57276  0.71476  1.0000
  C   C194      1.0  0.06456  0.60437  0.72711  1.0000
  H   H129      1.0  0.17523  0.69858  0.72207  1.0000
  O  Te9       1.0  0.00544  0.72023  0.64600  1.0000
  O  Te10      1.0  0.89623  0.57821  0.67572  1.0000
  H   H130      1.0  0.08007  0.57476  0.74801  1.0000
  Mg  Mg5       1.0  0.89749  0.65300  0.63848  1.0000
  C   C195      1.0  0.06367  0.72796  0.24292  1.0000
  C   C196      1.0  0.12678  0.76014  0.26695  1.0000
  C  Sn11      1.0  0.15928  0.71848  0.27920  1.0000
  C  Sn12      1.0  0.12791  0.64323  0.26709  1.0000
  C   C197      1.0  0.06480  0.61157  0.24302  1.0000
  C   C198      1.0  0.03271  0.65375  0.23095  1.0000
  H   H131      1.0  0.03887  0.76061  0.23356  1.0000
  O  Te11      1.0  0.22230  0.75149  0.30322  1.0000
  O  Te12      1.0  0.15928  0.60033  0.27888  1.0000
  H   H132      1.0  0.98388  0.62884  0.21232  1.0000
  Mg  Mg6       1.0  0.24490  0.67023  0.31160  1.0000
  C   C199      1.0  0.25839  0.90603  0.71308  1.0000
  C   C200      1.0  0.22101  0.85516  0.68266  1.0000
  C  Sn13      1.0  0.25464  0.82018  0.66307  1.0000
  C  Sn14      1.0  0.32704  0.83652  0.67422  1.0000
  C   C201      1.0  0.36395  0.88746  0.70471  1.0000
  C   C202      1.0  0.32979  0.92216  0.72410  1.0000
  H   H133      1.0  0.23195  0.93286  0.72810  1.0000
  O  Te13      1.0  0.21652  0.76952  0.63273  1.0000
  O  Te14      1.0  0.36193  0.80233  0.65514  1.0000
  H   H134      1.0  0.35873  0.96151  0.74767  1.0000
  Mg  Mg7       1.0  0.28739  0.73729  0.61560  1.0000
  C   C203      1.0  0.26509  0.20826  0.20655  1.0000
  C   C204      1.0  0.31505  0.20109  0.18159  1.0000
  C  Sn15      1.0  0.36021  0.17463  0.19666  1.0000
  C  Sn16      1.0  0.35512  0.15501  0.23749  1.0000
  C   C205      1.0  0.30492  0.16234  0.26220  1.0000
  C   C206      1.0  0.26001  0.18889  0.24682  1.0000
  H   H135      1.0  0.23031  0.22877  0.19465  1.0000
  O  Te15      1.0  0.40985  0.16784  0.17131  1.0000
  O  Te16      1.0  0.39958  0.12840  0.25332  1.0000
  H   H136      1.0  0.22130  0.19439  0.26614  1.0000
  Mg  Mg8       1.0  0.45868  0.12898  0.20687  1.0000
  C   C207      1.0  0.86489  0.52297  0.41372  1.0000
  C   C208      1.0  0.89691  0.58711  0.43710  1.0000
  C  Sn17      1.0  0.97277  0.62342  0.44555  1.0000
  C  Sn18      1.0  0.01727  0.59487  0.43026  1.0000
  C   C209      1.0  0.98472  0.53070  0.40687  1.0000
  C   C210      1.0  0.90874  0.49479  0.39861  1.0000
  H   H137      1.0  0.80612  0.49521  0.40731  1.0000
  O  Te17      1.0  0.00386  0.68742  0.46898  1.0000
  O  Te18      1.0  0.09324  0.63007  0.43824  1.0000
  H   H138      1.0  0.88398  0.44516  0.38048  1.0000
  Mg  Mg9       1.0  0.10994  0.71562  0.47162  1.0000
  C   C211      1.0  0.69671  0.64604  0.39871  1.0000
  C   C212      1.0  0.63676  0.57379  0.40304  1.0000
  C  Sn19      1.0  0.64253  0.52264  0.42777  1.0000
  C  Sn20      1.0  0.70962  0.54441  0.44852  1.0000
  C   C213      1.0  0.76926  0.61685  0.44402  1.0000
  C   C214      1.0  0.76289  0.66757  0.41918  1.0000
  H   H139      1.0  0.69177  0.68530  0.37952  1.0000
  O  Te19      1.0  0.58211  0.45067  0.43174  1.0000
  O  Te20      1.0  0.71688  0.49443  0.47344  1.0000
  H   H140      1.0  0.80930  0.72352  0.41586  1.0000
  Mg  Mg10      1.0  0.61902  0.40261  0.46915  1.0000
  C   C215      1.0  0.20904  0.19917  0.06277  1.0000
  C   C216      1.0  0.23480  0.17177  0.09312  1.0000
  C  Sn21      1.0  0.18725  0.10302  0.11089  1.0000
  C  Sn22      1.0  0.11254  0.06105  0.09798  1.0000
  C   C217      1.0  0.08732  0.08893  0.06758  1.0000
  C   C218      1.0  0.13537  0.15779  0.05001  1.0000
  H   H141      1.0  0.24623  0.25243  0.04916  1.0000
  O  Te21      1.0  0.21389  0.07649  0.14118  1.0000
  O  Te22      1.0  0.56118  0.99217  0.11522  1.0000
  H   H142      1.0  0.11542  0.17897  0.02650  1.0000
  Mg  Mg11      1.0  0.62355  0.97962  0.15546  1.0000
  C   C219      1.0  0.13317  0.47335  0.91207  1.0000
  C   C220      1.0  0.10267  0.41006  0.93639  1.0000
  C  Sn23      1.0  0.02820  0.37606  0.94805  1.0000
  C  Sn24      1.0  0.98357  0.40607  0.93507  1.0000
  C   C221      1.0  0.01460  0.46937  0.91073  1.0000
  C   C222      1.0  0.08918  0.50297  0.89925  1.0000
  H   H143      1.0  0.19086  0.49932  0.90317  1.0000
  O  Te23      1.0  0.99862  0.31288  0.97236  1.0000
  O  Te24      1.0  0.90898  0.37318  0.94627  1.0000
  H   H144      1.0  0.11277  0.55194  0.88040  1.0000
  Mg  Mg12      1.0  0.89407  0.28795  0.97968  1.0000
  C   C223      1.0  0.88361  0.70521  0.73609  1.0000
  C   C224      1.0  0.82708  0.67344  0.70784  1.0000
  C  Sn25      1.0  0.75271  0.63906  0.71972  1.0000
  C  Sn26      1.0  0.73478  0.63655  0.76066  1.0000
  C   C225      1.0  0.79175  0.66855  0.78870  1.0000
  C   C226      1.0  0.86598  0.70279  0.77648  1.0000
  H   H145      1.0  0.94105  0.73174  0.72664  1.0000
  O  Te25      1.0  0.69691  0.60757  0.69110  1.0000
  O  Te26      1.0  0.66092  0.60257  0.77336  1.0000
  H   H146      1.0  0.90974  0.72742  0.79836  1.0000
  Mg  Mg13      1.0  0.60457  0.56751  0.72310  1.0000
  C   C227      1.0  0.51325  0.85484  0.60444  1.0000
  C   C228      1.0  0.54523  0.92199  0.58331  1.0000
  C  Sn27      1.0  0.61932  0.95572  0.57099  1.0000
  C  Sn28      1.0  0.66204  0.92146  0.58001  1.0000
  C   C229      1.0  0.62952  0.85425  0.60113  1.0000
  C   C230      1.0  0.55534  0.82099  0.61333  1.0000
  H   H147      1.0  0.45584  0.82908  0.61386  1.0000
  O  Te27      1.0  0.15306  0.02282  0.54992  1.0000
  O  Te28      1.0  0.73620  0.95395  0.56803  1.0000
  H   H148      1.0  0.53058  0.76898  0.62966  1.0000
  Mg  Mg14      1.0  0.25631  0.04551  0.54004  1.0000
  C   C231      1.0  0.83508  0.81828  0.55728  1.0000
  C   C232      1.0  0.89790  0.88660  0.56588  1.0000
  C  Sn29      1.0  0.89427  0.93356  0.59444  1.0000
  C  Sn30      1.0  0.82640  0.91156  0.61473  1.0000
  C   C233      1.0  0.76388  0.84308  0.60594  1.0000
  C   C234      1.0  0.76813  0.79652  0.57729  1.0000
  H   H149      1.0  0.83837  0.78223  0.53513  1.0000
  O  Te29      1.0  0.46020  0.00164  0.60266  1.0000
  O  Te30      1.0  0.82123  0.95742  0.64343  1.0000
  H   H150      1.0  0.71949  0.74361  0.57066  1.0000
  Mg  Mg15      1.0  0.42535  0.04487  0.64421  1.0000
  C   C235      1.0  0.46205  0.09402  0.55278  1.0000
  C   C236      1.0  0.43434  0.01748  0.54914  1.0000
  C  Sn31      1.0  0.87106  0.97482  0.52451  1.0000
  C  Sn32      1.0  0.34033  0.00959  0.50317  1.0000
  C   C237      1.0  0.36851  0.08621  0.50700  1.0000
  C   C238      1.0  0.42919  0.12836  0.53174  1.0000
  H   H151      1.0  0.50903  0.12665  0.57190  1.0000
  O  Te31      1.0  0.84405  0.89842  0.52122  1.0000
  O  Te32      1.0  0.77704  0.96828  0.47835  1.0000
  H   H152      1.0  0.45066  0.18762  0.53453  1.0000
  Mg  Mg16      1.0  0.76027  0.86585  0.48367  1.0000
  C   C239      1.0  0.05915  0.12060  0.94168  1.0000
  C   C240      1.0  0.99991  0.09301  0.91500  1.0000
  C  Sn33      1.0  0.97973  0.14111  0.89697  1.0000
  C  Sn34      1.0  0.01973  0.21822  0.90586  1.0000
  C   C241      1.0  0.07895  0.24528  0.93257  1.0000
  C   C242      1.0  0.09865  0.19665  0.95046  1.0000
  H   H153      1.0  0.07442  0.08299  0.95551  1.0000
  O  Te33      1.0  0.92038  0.11261  0.87039  1.0000
  O  Te34      1.0  0.00076  0.26753  0.88824  1.0000
  H   H154      1.0  0.14455  0.21804  0.97110  1.0000
  Mg  Mg17      1.0  0.91565  0.20201  0.85399  1.0000
  C   C243      1.0  0.61765  0.11688  0.73728  1.0000
  C   C244      1.0  0.56243  0.04191  0.73700  1.0000
  C  Sn35      1.0  0.07123  0.98868  0.75627  1.0000
  C  Sn36      1.0  0.64191  0.01110  0.77617  1.0000
  C   C245      1.0  0.69678  0.08625  0.77630  1.0000
  C   C246      1.0  0.68476  0.13904  0.75691  1.0000
  H   H155      1.0  0.60834  0.15774  0.72230  1.0000
  O  Te35      1.0  0.01548  0.91401  0.75569  1.0000
  O  Te36      1.0  0.15215  0.95906  0.79568  1.0000
  H   H156      1.0  0.72750  0.19709  0.75715  1.0000
  Mg  Mg18      1.0  0.05925  0.86388  0.78653  1.0000
  C   C247      1.0  0.63144  0.54085  0.89012  1.0000
  C   C248      1.0  0.58310  0.56906  0.88623  1.0000
  C  Sn37      1.0  0.60130  0.62964  0.86111  1.0000
  C  Sn38      1.0  0.66917  0.66246  0.83952  1.0000
  C   C249      1.0  0.71712  0.63380  0.84360  1.0000
  C   C250      1.0  0.69838  0.57317  0.86882  1.0000
  H   H157      1.0  0.61693  0.49392  0.90962  1.0000
  O  Te37      1.0  0.55238  0.65714  0.85758  1.0000
  O  Te38      1.0  0.68871  0.72304  0.81420  1.0000
  H   H158      1.0  0.73579  0.55132  0.87181  1.0000
  Mg  Mg19      1.0  0.60372  0.74061  0.81936  1.0000
  C   C251      1.0  0.83360  0.95191  0.98933  1.0000
  C   C252      1.0  0.77234  0.92273  0.00771  1.0000
  C  Sn39      1.0  0.76638  0.92246  0.04913  1.0000
  C  Sn40      1.0  0.83152  0.95998  0.07250  1.0000
  C   C253      1.0  0.90101  0.99687  0.05383  1.0000
  C   C254      1.0  0.90633  0.99678  0.01236  1.0000
  H   H159      1.0  0.83773  0.95188  0.95724  1.0000
  O  Te39      1.0  0.69629  0.88520  0.06701  1.0000
  O  Te40      1.0  0.82716  0.96061  0.11396  1.0000
  H   H160      1.0  0.45451  0.01765  0.99814  1.0000
  Mg  Mg20      1.0  0.71904  0.90188  0.12450  1.0000
  C   C255      1.0  0.95459  0.30853  0.73475  1.0000
  C   C256      1.0  0.93982  0.36714  0.73797  1.0000
  C  Sn41      1.0  0.87880  0.35817  0.76005  1.0000
  C  Sn42      1.0  0.83180  0.28920  0.77924  1.0000
  C   C257      1.0  0.84708  0.23093  0.77586  1.0000
  C   C258      1.0  0.90828  0.24050  0.75368  1.0000
  H   H161      1.0  0.00196  0.31594  0.71760  1.0000
  O  Te41      1.0  0.86483  0.41729  0.76295  1.0000
  O  Te42      1.0  0.77045  0.27874  0.80151  1.0000
  H   H162      1.0  0.91973  0.19513  0.75121  1.0000
  Mg  Mg21      1.0  0.77444  0.37590  0.79665  1.0000
  C   C259      1.0  0.61306  0.59271  0.59665  1.0000
  C   C260      1.0  0.54480  0.55875  0.57704  1.0000
  C  Sn43      1.0  0.50845  0.59876  0.56921  1.0000
  C  Sn44      1.0  0.54119  0.67417  0.58126  1.0000
  C   C261      1.0  0.60952  0.70765  0.60083  1.0000
  C   C262      1.0  0.64541  0.66709  0.60853  1.0000
  H   H163      1.0  0.64085  0.56135  0.60258  1.0000
  O  Te43      1.0  0.44027  0.56397  0.54961  1.0000
  O  Te44      1.0  0.50607  0.71546  0.57380  1.0000
  H   H164      1.0  0.69828  0.69341  0.62368  1.0000
  Mg  Mg22      1.0  0.41393  0.64344  0.54619  1.0000
  C   C263      1.0  0.29615  0.17527  0.42116  1.0000
  C   C264      1.0  0.32546  0.14155  0.44550  1.0000
  C  Sn45      1.0  0.36338  0.10833  0.42873  1.0000
  C  Sn46      1.0  0.37205  0.10900  0.38682  1.0000
  C   C265      1.0  0.34256  0.14292  0.36273  1.0000
  C   C266      1.0  0.30470  0.17598  0.37982  1.0000
  H   H165      1.0  0.26689  0.20088  0.43438  1.0000
  O  Te45      1.0  0.39230  0.07486  0.45348  1.0000
  O  Te46      1.0  0.40972  0.07624  0.36928  1.0000
  H   H166      1.0  0.28205  0.20212  0.36097  1.0000
  Mg  Mg23      1.0  0.43917  0.03755  0.41551  1.0000
  C   C267      1.0  0.70908  0.82447  0.90045  1.0000
  C   C268      1.0  0.67286  0.84469  0.87231  1.0000
  C  Sn47      1.0  0.63363  0.87993  0.88426  1.0000
  C  Sn48      1.0  0.63072  0.89515  0.92516  1.0000
  C   C269      1.0  0.66718  0.87474  0.95307  1.0000
  C   C270      1.0  0.70626  0.83948  0.94079  1.0000
  H   H167      1.0  0.73934  0.79722  0.89095  1.0000
  O  Te47      1.0  0.59774  0.89974  0.85576  1.0000
  O  Te48      1.0  0.59193  0.93033  0.93792  1.0000
  H   H168      1.0  0.73433  0.82387  0.96258  1.0000
  Mg  Mg24      1.0  0.55200  0.94655  0.88782  1.0000
