data_image0
_chemical_formula_structural       C16H16N16C6Sn2C2HTe2HMgC2Sn2C2HTe2HMgC2Sn2C2HTe2HMgC2Sn2C2HTe2HMgC2Sn2C2HTe2HMgC2Sn2C2HTe2HMgC2Sn2C2HTe2HMgC2Sn2C2HTe2HMgC2Sn2C2HTe2HMgC2Sn2C2HTe2HMgC2Sn2C2HTe2HMgC2Sn2C2HTe2HMgC2Sn2C2HTe2HMgC2Sn2C2HTe2HMgC2Sn2C2HTe2HMgC2Sn2C2HTe2HMgC2Sn2C2HTe2HMgC2Sn2C2HTe2HMgC2Sn2C2HTe2HMgC2Sn2C2HTe2HMgC2Sn2C2HTe2HMgC2Sn2C2HTe2HMgC2Sn2C2HTe2HMgC2Sn2C2HTe2HMg
_chemical_formula_sum              "C116 H64 N16 Sn48 Te48 Mg24"
_cell_length_a       25.7451
_cell_length_b       25.8218
_cell_length_c       7.77158
_cell_angle_alpha    89.6407
_cell_angle_beta     89.7388
_cell_angle_gamma    90.2575

_symmetry_space_group_name_H-M    'P1'
_space_group_IT_number       1

loop_
  _space_group_symop_operation_xyz
  'x, y, z'

loop_
  _atom_site_type_symbol
  _atom_site_label
  _atom_site_symmetry_multiplicity
  _atom_site_fract_x
  _atom_site_fract_y
  _atom_site_fract_z
  _atom_site_occupancy
  C   C1        1.0  0.51680  0.58482  0.62557  1.0000
  C   C2        1.0  0.48263  0.41363  0.36432  1.0000
  C   C3        1.0  0.98485  0.41614  0.12456  1.0000
  C   C4        1.0  0.02094  0.58186  0.86978  1.0000
  C   C5        1.0  0.16549  0.77280  0.87389  1.0000
  C   C6        1.0  0.83506  0.23232  0.11848  1.0000
  C   C7        1.0  0.33623  0.23073  0.38354  1.0000
  C   C8        1.0  0.66319  0.77106  0.61761  1.0000
  C   C9        1.0  0.02039  0.08334  0.12795  1.0000
  C   C10       1.0  0.98074  0.91488  0.87427  1.0000
  C   C11       1.0  0.48052  0.91603  0.63436  1.0000
  C   C12       1.0  0.51996  0.08265  0.37309  1.0000
  C   C13       1.0  0.66964  0.26788  0.37254  1.0000
  C   C14       1.0  0.32894  0.73778  0.62683  1.0000
  C   C15       1.0  0.83252  0.72810  0.87894  1.0000
  C   C16       1.0  0.16677  0.27067  0.12206  1.0000
  H   H1        1.0  0.54900  0.55772  0.60258  1.0000
  H   H2        1.0  0.45051  0.44103  0.38393  1.0000
  H   H3        1.0  0.95219  0.44301  0.10648  1.0000
  H   H4        1.0  0.05353  0.55486  0.88770  1.0000
  H   H5        1.0  0.19217  0.80581  0.85419  1.0000
  H   H6        1.0  0.80824  0.19924  0.13362  1.0000
  H   H7        1.0  0.30835  0.19874  0.36611  1.0000
  H   H8        1.0  0.69148  0.80266  0.63578  1.0000
  H   H9        1.0  0.05279  0.05628  0.10830  1.0000
  H   H10       1.0  0.94873  0.94244  0.89361  1.0000
  H   H11       1.0  0.44897  0.94424  0.61682  1.0000
  H   H12       1.0  0.55226  0.05539  0.39207  1.0000
  H   H13       1.0  0.69545  0.30178  0.35760  1.0000
  H   H14       1.0  0.30163  0.70512  0.64280  1.0000
  H   H15       1.0  0.80443  0.69629  0.86119  1.0000
  H   H16       1.0  0.19375  0.30348  0.13850  1.0000
  N   N1        1.0  0.48779  0.58124  0.76121  1.0000
  N   N2        1.0  0.51234  0.41636  0.22995  1.0000
  N   N3        1.0  0.01551  0.41947  0.25531  1.0000
  N   N4        1.0  0.99090  0.57924  0.73723  1.0000
  N   N5        1.0  0.16819  0.74330  0.00843  1.0000
  N   N6        1.0  0.83242  0.26342  0.98779  1.0000
  N   N7        1.0  0.33402  0.26067  0.51615  1.0000
  N   N8        1.0  0.66499  0.74150  0.48405  1.0000
  N   N9        1.0  0.99049  0.08029  0.26166  1.0000
  N   N10       1.0  0.01085  0.91751  0.74089  1.0000
  N   N11       1.0  0.51052  0.91738  0.76729  1.0000
  N   N12       1.0  0.48982  0.07978  0.24096  1.0000
  N   N13       1.0  0.67370  0.23643  0.50177  1.0000
  N   N14       1.0  0.32653  0.76883  0.49598  1.0000
  N   N15       1.0  0.82993  0.75866  0.00975  1.0000
  N   N16       1.0  0.17011  0.23988  0.99205  1.0000
  C   C17       1.0  0.49664  0.75241  0.12486  1.0000
  C   C18       1.0  0.50242  0.24859  0.87437  1.0000
  C   C19       1.0  0.99980  0.24971  0.62509  1.0000
  C   C20       1.0  0.99982  0.74685  0.37353  1.0000
  C   C21       1.0  0.55272  0.66232  0.26880  1.0000
  C   C22       1.0  0.51180  0.69666  0.24041  1.0000
  C  Sn1       1.0  0.46880  0.69668  0.35074  1.0000
  C  Sn2       1.0  0.46685  0.66165  0.49201  1.0000
  C   C23       1.0  0.50800  0.62747  0.51938  1.0000
  C   C24       1.0  0.55084  0.62776  0.40815  1.0000
  H   H17       1.0  0.58588  0.66256  0.18281  1.0000
  O  Te1       1.0  0.42824  0.73124  0.32047  1.0000
  O  Te2       1.0  0.42434  0.66086  0.60431  1.0000
  H   H18       1.0  0.58253  0.60119  0.43023  1.0000
  Mg  Mg1       1.0  0.37866  0.71541  0.50941  1.0000
  C   C25       1.0  0.54060  0.33085  0.52029  1.0000
  C   C26       1.0  0.49915  0.36421  0.48773  1.0000
  C  Sn3       1.0  0.45580  0.36426  0.59654  1.0000
  C  Sn4       1.0  0.45404  0.33023  0.74054  1.0000
  C   C27       1.0  0.49572  0.29703  0.77207  1.0000
  C   C28       1.0  0.53890  0.29729  0.66232  1.0000
  H   H19       1.0  0.57402  0.33107  0.43544  1.0000
  O  Te3       1.0  0.41472  0.39783  0.56211  1.0000
  O  Te4       1.0  0.41119  0.32949  0.85141  1.0000
  H   H20       1.0  0.57100  0.27148  0.68762  1.0000
  Mg  Mg2       1.0  0.36483  0.38247  0.75057  1.0000
  C   C29       1.0  0.03830  0.32853  0.98147  1.0000
  C   C30       1.0  0.00267  0.36901  0.99420  1.0000
  C  Sn5       1.0  0.96015  0.37131  0.88340  1.0000
  C  Sn6       1.0  0.95326  0.33230  0.75769  1.0000
  C   C31       1.0  0.98910  0.29194  0.74607  1.0000
  C   C32       1.0  0.03152  0.29002  0.85755  1.0000
  H   H21       1.0  0.07249  0.32892  0.06778  1.0000
  O  Te5       1.0  0.92493  0.41204  0.89783  1.0000
  O  Te6       1.0  0.91109  0.33365  0.64536  1.0000
  H   H22       1.0  0.05908  0.25866  0.84774  1.0000
  Mg  Mg3       1.0  0.87365  0.39698  0.71543  1.0000
  C   C33       1.0  0.96218  0.68751  0.08291  1.0000
  C   C34       1.0  0.99326  0.69753  0.22596  1.0000
  C  Sn7       1.0  0.03860  0.66918  0.25328  1.0000
  C  Sn8       1.0  0.05300  0.63010  0.13495  1.0000
  C   C35       1.0  0.02028  0.61850  0.99218  1.0000
  C   C36       1.0  0.97498  0.64710  0.96610  1.0000
  H   H23       1.0  0.92714  0.70965  0.06267  1.0000
  O  Te7       1.0  0.06920  0.67967  0.39690  1.0000
  O  Te8       1.0  0.09813  0.60119  0.15913  1.0000
  H   H24       1.0  0.95094  0.63935  0.85528  1.0000
  Mg  Mg4       1.0  0.12708  0.62986  0.37424  1.0000
  C   C37       1.0  0.08804  0.80640  0.51623  1.0000
  C   C38       1.0  0.05522  0.76411  0.48748  1.0000
  C  Sn9       1.0  0.05643  0.72110  0.59733  1.0000
  C  Sn10      1.0  0.09118  0.72053  0.73852  1.0000
  C   C39       1.0  0.12383  0.76305  0.76625  1.0000
  C   C40       1.0  0.12231  0.80588  0.65548  1.0000
  H   H25       1.0  0.08685  0.83955  0.43059  1.0000
  O  Te9       1.0  0.02339  0.67916  0.56671  1.0000
  O  Te10      1.0  0.09318  0.67805  0.85035  1.0000
  H   H26       1.0  0.14771  0.83863  0.67784  1.0000
  Mg  Mg5       1.0  0.04049  0.63020  0.75508  1.0000
  C   C41       1.0  0.88747  0.19303  0.41317  1.0000
  C   C42       1.0  0.87319  0.22871  0.28617  1.0000
  C  Sn11      1.0  0.90212  0.27407  0.26125  1.0000
  C  Sn12      1.0  0.94614  0.28378  0.36557  1.0000
  C   C43       1.0  0.96012  0.24783  0.49220  1.0000
  C   C44       1.0  0.93089  0.20257  0.51608  1.0000
  H   H27       1.0  0.86487  0.15800  0.43160  1.0000
  O  Te11      1.0  0.88730  0.30931  0.13382  1.0000
  O  Te12      1.0  0.97575  0.32879  0.34336  1.0000
  H   H28       1.0  0.94198  0.17494  0.61435  1.0000
  Mg  Mg6       1.0  0.94000  0.36508  0.15282  1.0000
  C   C45       1.0  0.42285  0.28570  0.23377  1.0000
  C   C46       1.0  0.38306  0.24895  0.24961  1.0000
  C  Sn13      1.0  0.38131  0.20649  0.13920  1.0000
  C  Sn14      1.0  0.42016  0.20081  0.01071  1.0000
  C   C47       1.0  0.45843  0.23587  0.99600  1.0000
  C   C48       1.0  0.46119  0.28011  0.10712  1.0000
  H   H29       1.0  0.42393  0.31845  0.31980  1.0000
  O  Te13      1.0  0.34128  0.17015  0.15676  1.0000
  O  Te14      1.0  0.41796  0.15685  0.89871  1.0000
  H   H30       1.0  0.49202  0.30854  0.09490  1.0000
  Mg  Mg7       1.0  0.35550  0.11759  0.97354  1.0000
  C   C49       1.0  0.60896  0.81015  0.90976  1.0000
  C   C50       1.0  0.62390  0.77462  0.78418  1.0000
  C  Sn15      1.0  0.59525  0.72917  0.76039  1.0000
  C  Sn16      1.0  0.55085  0.71921  0.86443  1.0000
  C   C51       1.0  0.53621  0.75501  0.98963  1.0000
  C   C52       1.0  0.56654  0.80226  0.01238  1.0000
  H   H31       1.0  0.63134  0.84526  0.92731  1.0000
  O  Te15      1.0  0.61072  0.69408  0.63437  1.0000
  O  Te16      1.0  0.52151  0.67409  0.84333  1.0000
  H   H32       1.0  0.55495  0.82978  0.10955  1.0000
  Mg  Mg8       1.0  0.55817  0.63808  0.65453  1.0000
  C   C53       1.0  0.96070  0.18860  0.91280  1.0000
  C   C54       1.0  0.99557  0.20356  0.78322  1.0000
  C  Sn17      1.0  0.04082  0.17513  0.75473  1.0000
  C  Sn18      1.0  0.05124  0.13093  0.85806  1.0000
  C   C55       1.0  0.01609  0.11626  0.98730  1.0000
  C   C56       1.0  0.97233  0.14688  0.01474  1.0000
  H   H33       1.0  0.92575  0.21081  0.93399  1.0000
  O  Te17      1.0  0.07525  0.19063  0.62475  1.0000
  O  Te18      1.0  0.09616  0.10181  0.83231  1.0000
  H   H34       1.0  0.94532  0.13527  0.11501  1.0000
  Mg  Mg9       1.0  0.13121  0.13841  0.63926  1.0000
  C   C57       1.0  0.94126  0.85893  0.16494  1.0000
  C   C58       1.0  0.97693  0.87500  0.03928  1.0000
  C  Sn19      1.0  0.02263  0.84715  0.01246  1.0000
  C  Sn20      1.0  0.03268  0.80237  0.11348  1.0000
  C   C59       1.0  0.99672  0.78659  0.23879  1.0000
  C   C60       1.0  0.95113  0.81476  0.26459  1.0000
  H   H35       1.0  0.90597  0.88070  0.18485  1.0000
  O  Te19      1.0  0.05648  0.86187  0.88642  1.0000
  O  Te20      1.0  0.07803  0.77380  0.08932  1.0000
  H   H36       1.0  0.92350  0.80228  0.36181  1.0000
  Mg  Mg10      1.0  0.11278  0.81004  0.90178  1.0000
  C   C61       1.0  0.53519  0.83091  0.48234  1.0000
  C   C62       1.0  0.49831  0.87009  0.49983  1.0000
  C  Sn21      1.0  0.45540  0.87190  0.39060  1.0000
  C  Sn22      1.0  0.44940  0.83372  0.26161  1.0000
  C   C63       1.0  0.48649  0.79466  0.24523  1.0000
  C   C64       1.0  0.52930  0.79323  0.35519  1.0000
  H   H37       1.0  0.56830  0.82978  0.56747  1.0000
  O  Te21      1.0  0.41892  0.91132  0.40980  1.0000
  O  Te22      1.0  0.40687  0.83461  0.15075  1.0000
  H   H38       1.0  0.55783  0.76287  0.34169  1.0000
  Mg  Mg11      1.0  0.36760  0.89608  0.22768  1.0000
  C   C65       1.0  0.55934  0.13684  0.66224  1.0000
  C   C66       1.0  0.52338  0.12171  0.53791  1.0000
  C  Sn23      1.0  0.47776  0.14991  0.51414  1.0000
  C  Sn24      1.0  0.46807  0.19409  0.61691  1.0000
  C   C67       1.0  0.50431  0.20893  0.74086  1.0000
  C   C68       1.0  0.54982  0.18042  0.76361  1.0000
  H   H39       1.0  0.59457  0.11480  0.67979  1.0000
  O  Te23      1.0  0.44224  0.13424  0.38939  1.0000
  O  Te24      1.0  0.42280  0.22299  0.59580  1.0000
  H   H40       1.0  0.57767  0.19217  0.85981  1.0000
  Mg  Mg12      1.0  0.38619  0.18620  0.40899  1.0000
  C   C69       1.0  0.61700  0.30492  0.07487  1.0000
  C   C70       1.0  0.62737  0.27335  0.21722  1.0000
  C  Sn25      1.0  0.59832  0.22827  0.24615  1.0000
  C  Sn26      1.0  0.55819  0.21464  0.13016  1.0000
  C   C71       1.0  0.54676  0.24457  0.98805  1.0000
  C   C72       1.0  0.57606  0.28960  0.96036  1.0000
  H   H41       1.0  0.63969  0.33974  0.05337  1.0000
  O  Te25      1.0  0.60917  0.19718  0.38905  1.0000
  O  Te26      1.0  0.52857  0.16979  0.15597  1.0000
  H   H42       1.0  0.56805  0.31401  0.85007  1.0000
  Mg  Mg13      1.0  0.55810  0.13995  0.36927  1.0000
  C   C73       1.0  0.41425  0.79307  0.77806  1.0000
  C   C74       1.0  0.37921  0.75270  0.74768  1.0000
  C  Sn27      1.0  0.37824  0.70920  0.85548  1.0000
  C  Sn28      1.0  0.41303  0.70618  0.99624  1.0000
  C   C75       1.0  0.44929  0.74869  0.02561  1.0000
  C   C76       1.0  0.44856  0.79014  0.91690  1.0000
  H   H43       1.0  0.41474  0.82662  0.69401  1.0000
  O  Te27      1.0  0.34300  0.66920  0.82325  1.0000
  O  Te28      1.0  0.41425  0.66505  0.10604  1.0000
  H   H44       1.0  0.47567  0.82141  0.94052  1.0000
  Mg  Mg14      1.0  0.35903  0.62046  0.00910  1.0000
  C   C77       1.0  0.90890  0.69066  0.52083  1.0000
  C   C78       1.0  0.94418  0.73109  0.49166  1.0000
  C  Sn29      1.0  0.94557  0.77350  0.60230  1.0000
  C  Sn30      1.0  0.91096  0.77536  0.74471  1.0000
  C   C79       1.0  0.87584  0.73470  0.77285  1.0000
  C   C80       1.0  0.87476  0.69245  0.66129  1.0000
  H   H45       1.0  0.90808  0.65795  0.43458  1.0000
  O  Te29      1.0  0.98105  0.81357  0.57124  1.0000
  O  Te30      1.0  0.91154  0.81728  0.85735  1.0000
  H   H46       1.0  0.84746  0.66114  0.68398  1.0000
  Mg  Mg15      1.0  0.96696  0.86245  0.76106  1.0000
  C   C81       1.0  0.09219  0.30473  0.48672  1.0000
  C   C82       1.0  0.05241  0.26787  0.49876  1.0000
  C  Sn31      1.0  0.05094  0.22620  0.38507  1.0000
  C  Sn32      1.0  0.09008  0.22143  0.25711  1.0000
  C   C83       1.0  0.12974  0.25849  0.24620  1.0000
  C   C84       1.0  0.13083  0.30005  0.36059  1.0000
  H   H47       1.0  0.09306  0.33687  0.57528  1.0000
  O  Te31      1.0  0.01090  0.18973  0.39885  1.0000
  O  Te32      1.0  0.08955  0.18015  0.14187  1.0000
  H   H48       1.0  0.16166  0.32856  0.35130  1.0000
  Mg  Mg16      1.0  0.02696  0.14037  0.21215  1.0000
  C   C85       1.0  0.49079  0.54468  0.09869  1.0000
  C   C86       1.0  0.49382  0.54151  0.91948  1.0000
  C  Sn33      1.0  0.50191  0.49456  0.83534  1.0000
  C  Sn34      1.0  0.50560  0.44807  0.93276  1.0000
  C   C87       1.0  0.50248  0.45165  0.11199  1.0000
  C   C88       1.0  0.49441  0.49885  0.19487  1.0000
  H   H49       1.0  0.48452  0.58119  0.16283  1.0000
  O  Te33      1.0  0.50625  0.49398  0.65621  1.0000
  O  Te34      1.0  0.51365  0.40061  0.85195  1.0000
  H   H50       1.0  0.49096  0.49982  0.33362  1.0000
  Mg  Mg17      1.0  0.51707  0.41975  0.60503  1.0000
  C   C89       1.0  0.01579  0.45295  0.59457  1.0000
  C   C90       1.0  0.00943  0.45587  0.41629  1.0000
  C  Sn35      1.0  0.99874  0.50331  0.33695  1.0000
  C  Sn36      1.0  0.99437  0.54861  0.43830  1.0000
  C   C91       1.0  0.00083  0.54529  0.61655  1.0000
  C   C92       1.0  0.01150  0.49761  0.69463  1.0000
  H   H51       1.0  0.02407  0.41607  0.65498  1.0000
  O  Te35      1.0  0.99248  0.50554  0.15869  1.0000
  O  Te36      1.0  0.98372  0.59653  0.36232  1.0000
  H   H52       1.0  0.01645  0.49537  0.83265  1.0000
  Mg  Mg18      1.0  0.97840  0.57979  0.11473  1.0000
  C   C93       1.0  0.20000  0.74463  0.34939  1.0000
  C   C94       1.0  0.20377  0.75046  0.17087  1.0000
  C  Sn37      1.0  0.25182  0.76071  0.09333  1.0000
  C  Sn38      1.0  0.29687  0.76517  0.19677  1.0000
  C   C95       1.0  0.29270  0.75923  0.37524  1.0000
  C   C96       1.0  0.24442  0.74900  0.45150  1.0000
  H   H53       1.0  0.16265  0.73668  0.40841  1.0000
  O  Te37      1.0  0.25350  0.76455  0.91480  1.0000
  O  Te38      1.0  0.34539  0.77538  0.12261  1.0000
  H   H54       1.0  0.24152  0.74445  0.58971  1.0000
  Mg  Mg19      1.0  0.32833  0.77818  0.87382  1.0000
  C   C97       1.0  0.70644  0.23604  0.84211  1.0000
  C   C98       1.0  0.70957  0.24295  0.66386  1.0000
  C  Sn39      1.0  0.75706  0.25524  0.58570  1.0000
  C  Sn40      1.0  0.80220  0.26069  0.68822  1.0000
  C   C99       1.0  0.79867  0.25367  0.86643  1.0000
  C   C100      1.0  0.75095  0.24139  0.94331  1.0000
  H   H55       1.0  0.66953  0.22651  0.90160  1.0000
  O  Te39      1.0  0.75949  0.26203  0.40746  1.0000
  O  Te40      1.0  0.85016  0.27294  0.61343  1.0000
  H   H56       1.0  0.74993  0.23790  0.08131  1.0000
  Mg  Mg20      1.0  0.83372  0.27841  0.36536  1.0000
  C   C101      1.0  0.22733  0.24160  0.58876  1.0000
  C   C102      1.0  0.27932  0.25528  0.61376  1.0000
  C  Sn41      1.0  0.29867  0.26143  0.78008  1.0000
  C  Sn42      1.0  0.26528  0.25371  0.92377  1.0000
  C   C103      1.0  0.21333  0.23999  0.89740  1.0000
  C   C104      1.0  0.19436  0.23395  0.73042  1.0000
  H   H57       1.0  0.21265  0.23690  0.45957  1.0000
  O  Te41      1.0  0.35071  0.27513  0.80275  1.0000
  O  Te42      1.0  0.28500  0.26148  0.09139  1.0000
  H   H58       1.0  0.15412  0.22333  0.71110  1.0000
  Mg  Mg21      1.0  0.35890  0.28048  0.05619  1.0000
  C   C105      1.0  0.72242  0.74418  0.07980  1.0000
  C   C106      1.0  0.77501  0.75504  0.10606  1.0000
  C  Sn43      1.0  0.79458  0.75880  0.27291  1.0000
  C  Sn44      1.0  0.76080  0.75153  0.41586  1.0000
  C   C107      1.0  0.70826  0.74065  0.38823  1.0000
  C   C108      1.0  0.68907  0.73699  0.22072  1.0000
  H   H59       1.0  0.70619  0.73942  0.95021  1.0000
  O  Te43      1.0  0.84722  0.76969  0.29684  1.0000
  O  Te44      1.0  0.77935  0.75506  0.58399  1.0000
  H   H60       1.0  0.64836  0.72855  0.20043  1.0000
  Mg  Mg22      1.0  0.85410  0.77066  0.55055  1.0000
  C   C109      1.0  0.00835  0.97383  0.33543  1.0000
  C   C110      1.0  0.99156  0.02593  0.35984  1.0000
  C  Sn45      1.0  0.98672  0.04575  0.52599  1.0000
  C  Sn46      1.0  0.99436  0.01270  0.67011  1.0000
  C   C111      1.0  0.01119  0.96064  0.64432  1.0000
  C   C112      1.0  0.01592  0.94120  0.47751  1.0000
  H   H61       1.0  0.01204  0.95879  0.20637  1.0000
  O  Te45      1.0  0.97440  0.09790  0.54807  1.0000
  O  Te46      1.0  0.98978  0.03150  0.83757  1.0000
  H   H62       1.0  0.02547  0.90087  0.45865  1.0000
  Mg  Mg23      1.0  0.97239  0.10538  0.80151  1.0000
  C   C113      1.0  0.49402  0.02374  0.83807  1.0000
  C   C114      1.0  0.51061  0.97160  0.86453  1.0000
  C  Sn47      1.0  0.51627  0.95361  0.03145  1.0000
  C  Sn48      1.0  0.50825  0.98663  0.17427  1.0000
  C   C115      1.0  0.49163  0.03873  0.14644  1.0000
  C   C116      1.0  0.48609  0.05633  0.97887  1.0000
  H   H63       1.0  0.49077  0.03882  0.70842  1.0000
  O  Te47      1.0  0.52839  0.90142  0.05558  1.0000
  O  Te48      1.0  0.51226  0.96776  0.34247  1.0000
  H   H64       1.0  0.47669  0.09670  0.95842  1.0000
  Mg  Mg24      1.0  0.52959  0.89385  0.30931  1.0000
