data_image0
_chemical_formula_structural       C16H16N16C4SnCSn2CSnTe4Mg2SnCSn2CSnTe4Mg2SnCSn2CSnTe4Mg2SnCSn2CSnTe4Mg2SnCSn2CSnTe4Mg2SnCSn2CSnTe4Mg2SnCSn2CSnTe4Mg2SnCSn2CSnTe4Mg2SnCSn2CSnTe4Mg2SnCSn2CSnTe4Mg2SnCSn2CSnTe4Mg2SnCSn2CSnTe4Mg2SnCSn2CSnTe4Mg2SnCSn2CSnTe4Mg2SnCSn2CSnTe4Mg2SnCSn2CSnTe4Mg2SnCSn2CSnTe4Mg2SnCSn2CSnTe4Mg2SnCSn2CSnTe4Mg2SnCSn2CSnTe4Mg2SnCSn2CSnTe4Mg2SnCSn2CSnTe4Mg2SnCSn2CSnTe4Mg2SnCSn2CSnTe4Mg2
_chemical_formula_sum              "C68 H16 N16 Sn96 Te96 Mg48"
_cell_length_a       25.7451
_cell_length_b       25.8218
_cell_length_c       7.77158
_cell_angle_alpha    89.6407
_cell_angle_beta     89.7388
_cell_angle_gamma    90.2575

_symmetry_space_group_name_H-M    'P1'
_space_group_IT_number       1

loop_
  _space_group_symop_operation_xyz
  'x, y, z'

loop_
  _atom_site_type_symbol
  _atom_site_label
  _atom_site_symmetry_multiplicity
  _atom_site_fract_x
  _atom_site_fract_y
  _atom_site_fract_z
  _atom_site_occupancy
  C   C1        1.0  0.51680  0.58482  0.62557  1.0000
  C   C2        1.0  0.48263  0.41363  0.36432  1.0000
  C   C3        1.0  0.98485  0.41614  0.12456  1.0000
  C   C4        1.0  0.02094  0.58186  0.86978  1.0000
  C   C5        1.0  0.16549  0.77280  0.87389  1.0000
  C   C6        1.0  0.83506  0.23232  0.11848  1.0000
  C   C7        1.0  0.33623  0.23073  0.38354  1.0000
  C   C8        1.0  0.66319  0.77106  0.61761  1.0000
  C   C9        1.0  0.02039  0.08334  0.12795  1.0000
  C   C10       1.0  0.98074  0.91488  0.87427  1.0000
  C   C11       1.0  0.48052  0.91603  0.63436  1.0000
  C   C12       1.0  0.51996  0.08265  0.37309  1.0000
  C   C13       1.0  0.66964  0.26788  0.37254  1.0000
  C   C14       1.0  0.32894  0.73778  0.62683  1.0000
  C   C15       1.0  0.83252  0.72810  0.87894  1.0000
  C   C16       1.0  0.16677  0.27067  0.12206  1.0000
  H   H1        1.0  0.54900  0.55772  0.60258  1.0000
  H   H2        1.0  0.45051  0.44103  0.38393  1.0000
  H   H3        1.0  0.95219  0.44301  0.10648  1.0000
  H   H4        1.0  0.05353  0.55486  0.88770  1.0000
  H   H5        1.0  0.19217  0.80581  0.85419  1.0000
  H   H6        1.0  0.80824  0.19924  0.13362  1.0000
  H   H7        1.0  0.30835  0.19874  0.36611  1.0000
  H   H8        1.0  0.69148  0.80266  0.63578  1.0000
  H   H9        1.0  0.05279  0.05628  0.10830  1.0000
  H   H10       1.0  0.94873  0.94244  0.89361  1.0000
  H   H11       1.0  0.44897  0.94424  0.61682  1.0000
  H   H12       1.0  0.55226  0.05539  0.39207  1.0000
  H   H13       1.0  0.69545  0.30178  0.35760  1.0000
  H   H14       1.0  0.30163  0.70512  0.64280  1.0000
  H   H15       1.0  0.80443  0.69629  0.86119  1.0000
  H   H16       1.0  0.19375  0.30348  0.13850  1.0000
  N   N1        1.0  0.48779  0.58124  0.76121  1.0000
  N   N2        1.0  0.51234  0.41636  0.22995  1.0000
  N   N3        1.0  0.01551  0.41947  0.25531  1.0000
  N   N4        1.0  0.99090  0.57924  0.73723  1.0000
  N   N5        1.0  0.16819  0.74330  0.00843  1.0000
  N   N6        1.0  0.83242  0.26342  0.98779  1.0000
  N   N7        1.0  0.33402  0.26067  0.51615  1.0000
  N   N8        1.0  0.66499  0.74150  0.48405  1.0000
  N   N9        1.0  0.99049  0.08029  0.26166  1.0000
  N   N10       1.0  0.01085  0.91751  0.74089  1.0000
  N   N11       1.0  0.51052  0.91738  0.76729  1.0000
  N   N12       1.0  0.48982  0.07978  0.24096  1.0000
  N   N13       1.0  0.67370  0.23643  0.50177  1.0000
  N   N14       1.0  0.32653  0.76883  0.49598  1.0000
  N   N15       1.0  0.82993  0.75866  0.00975  1.0000
  N   N16       1.0  0.17011  0.23988  0.99205  1.0000
  C   C17       1.0  0.49664  0.75241  0.12486  1.0000
  C   C18       1.0  0.50242  0.24859  0.87437  1.0000
  C   C19       1.0  0.99980  0.24971  0.62509  1.0000
  C   C20       1.0  0.99982  0.74685  0.37353  1.0000
  C  Sn1       1.0  0.55867  0.65018  0.37230  1.0000
  C   C21       1.0  0.52340  0.63630  0.50199  1.0000
  C  Sn2       1.0  0.47255  0.65491  0.49867  1.0000
  C  Sn3       1.0  0.45660  0.68806  0.36283  1.0000
  C   C22       1.0  0.49186  0.70192  0.23323  1.0000
  C  Sn4       1.0  0.54272  0.68334  0.23647  1.0000
  O  Te1       1.0  0.60931  0.63112  0.37821  1.0000
  O  Te2       1.0  0.43800  0.64050  0.62980  1.0000
  O  Te3       1.0  0.40591  0.70712  0.35702  1.0000
  O  Te4       1.0  0.57726  0.69772  0.10543  1.0000
  Mg  Mg1       1.0  0.37314  0.67647  0.56505  1.0000
  Mg  Mg2       1.0  0.64212  0.66175  0.16999  1.0000
  C  Sn5       1.0  0.45485  0.36921  0.68354  1.0000
  C   C23       1.0  0.48891  0.38088  0.54808  1.0000
  C  Sn6       1.0  0.52711  0.34557  0.49935  1.0000
  C  Sn7       1.0  0.53135  0.29757  0.58778  1.0000
  C   C24       1.0  0.49730  0.28591  0.72313  1.0000
  C  Sn8       1.0  0.45909  0.32121  0.77197  1.0000
  O  Te5       1.0  0.41695  0.40509  0.73006  1.0000
  O  Te6       1.0  0.56072  0.35811  0.36357  1.0000
  O  Te7       1.0  0.56929  0.26168  0.54115  1.0000
  O  Te8       1.0  0.42548  0.30868  0.90764  1.0000
  Mg  Mg3       1.0  0.60596  0.29650  0.34790  1.0000
  Mg  Mg4       1.0  0.38022  0.37025  0.92335  1.0000
  C  Sn9       1.0  0.02901  0.29941  0.93778  1.0000
  C   C25       1.0  0.99485  0.28894  0.80303  1.0000
  C  Sn10      1.0  0.95868  0.32596  0.75094  1.0000
  C  Sn11      1.0  0.95663  0.37447  0.83521  1.0000
  C   C26       1.0  0.99078  0.38493  0.96986  1.0000
  C  Sn12      1.0  0.02834  0.34982  0.02206  1.0000
  O  Te9       1.0  0.06485  0.26183  0.98770  1.0000
  O  Te10      1.0  0.92492  0.31460  0.61593  1.0000
  O  Te11      1.0  0.92075  0.41206  0.78517  1.0000
  O  Te12      1.0  0.06209  0.36116  0.15695  1.0000
  Mg  Mg5       1.0  0.88298  0.37837  0.59459  1.0000
  Mg  Mg6       1.0  0.10407  0.29743  0.17833  1.0000
  C  Sn13      1.0  0.95687  0.67621  0.12414  1.0000
  C   C27       1.0  0.99136  0.68891  0.25582  1.0000
  C  Sn14      1.0  0.04218  0.67017  0.25350  1.0000
  C  Sn15      1.0  0.05888  0.63811  0.11667  1.0000
  C   C28       1.0  0.02302  0.62354  0.98508  1.0000
  C  Sn16      1.0  0.97219  0.64225  0.98730  1.0000
  O  Te13      1.0  0.90625  0.69537  0.12907  1.0000
  O  Te14      1.0  0.07595  0.68338  0.38662  1.0000
  O  Te15      1.0  0.10955  0.61894  0.11184  1.0000
  O  Te16      1.0  0.93844  0.62906  0.85428  1.0000
  Mg  Mg7       1.0  0.14110  0.64776  0.32257  1.0000
  Mg  Mg8       1.0  0.87329  0.66468  0.91815  1.0000
  C  Sn17      1.0  0.09482  0.70904  0.69091  1.0000
  C   C29       1.0  0.12872  0.75089  0.71243  1.0000
  C  Sn18      1.0  0.11875  0.79837  0.63232  1.0000
  C  Sn19      1.0  0.07393  0.80415  0.52861  1.0000
  C   C30       1.0  0.04005  0.76232  0.50715  1.0000
  C  Sn20      1.0  0.05000  0.71482  0.58719  1.0000
  O  Te17      1.0  0.10555  0.66193  0.77222  1.0000
  O  Te18      1.0  0.15322  0.83965  0.65571  1.0000
  O  Te19      1.0  0.06322  0.85131  0.44727  1.0000
  O  Te20      1.0  0.01555  0.67356  0.56387  1.0000
  Mg  Mg9       1.0  0.12179  0.89612  0.51834  1.0000
  Mg  Mg10      1.0  0.04693  0.61708  0.70125  1.0000
  C  Sn21      1.0  0.93036  0.29438  0.37524  1.0000
  C   C31       1.0  0.94210  0.25941  0.50726  1.0000
  C  Sn22      1.0  0.92213  0.20903  0.50467  1.0000
  C  Sn23      1.0  0.88977  0.19326  0.36721  1.0000
  C   C32       1.0  0.87805  0.22822  0.23529  1.0000
  C  Sn24      1.0  0.89800  0.27861  0.23778  1.0000
  O  Te21      1.0  0.95075  0.34455  0.38045  1.0000
  O  Te22      1.0  0.93441  0.17477  0.63813  1.0000
  O  Te23      1.0  0.86938  0.14305  0.36210  1.0000
  O  Te24      1.0  0.88575  0.31286  0.10441  1.0000
  Mg  Mg11      1.0  0.89725  0.11053  0.57349  1.0000
  Mg  Mg12      1.0  0.92290  0.37710  0.16887  1.0000
  C  Sn25      1.0  0.40154  0.20321  0.99254  1.0000
  C   C33       1.0  0.43966  0.24161  0.97504  1.0000
  C  Sn26      1.0  0.45063  0.27794  0.10922  1.0000
  C  Sn27      1.0  0.42154  0.27390  0.26419  1.0000
  C   C34       1.0  0.38346  0.23552  0.28164  1.0000
  C  Sn28      1.0  0.37383  0.20106  0.14750  1.0000
  O  Te25      1.0  0.39261  0.16920  0.85673  1.0000
  O  Te26      1.0  0.48893  0.31602  0.08869  1.0000
  O  Te27      1.0  0.43051  0.30796  0.40004  1.0000
  O  Te28      1.0  0.33557  0.16300  0.16799  1.0000
  Mg  Mg13      1.0  0.48678  0.35327  0.31049  1.0000
  Mg  Mg14      1.0  0.33632  0.12382  0.94632  1.0000
  C  Sn29      1.0  0.56927  0.72655  0.73996  1.0000
  C   C35       1.0  0.60722  0.76512  0.72272  1.0000
  C  Sn30      1.0  0.61691  0.79930  0.85757  1.0000
  C  Sn31      1.0  0.58946  0.79671  0.01294  1.0000
  C   C36       1.0  0.55155  0.75815  0.03014  1.0000
  C  Sn32      1.0  0.54044  0.72206  0.89534  1.0000
  O  Te29      1.0  0.56025  0.69280  0.60348  1.0000
  O  Te30      1.0  0.65503  0.83756  0.83729  1.0000
  O  Te31      1.0  0.59852  0.83050  0.14946  1.0000
  O  Te32      1.0  0.50235  0.68382  0.91558  1.0000
  Mg  Mg15      1.0  0.65449  0.87621  0.06002  1.0000
  Mg  Mg16      1.0  0.50427  0.64703  0.69297  1.0000
  C  Sn33      1.0  0.04329  0.15010  0.73427  1.0000
  C   C37       1.0  0.00494  0.18806  0.72184  1.0000
  C  Sn34      1.0  0.97154  0.19736  0.86025  1.0000
  C  Sn35      1.0  0.97796  0.17003  0.01436  1.0000
  C   C38       1.0  0.01629  0.13210  0.02675  1.0000
  C  Sn36      1.0  0.04833  0.12087  0.88837  1.0000
  O  Te33      1.0  0.07626  0.14146  0.59428  1.0000
  O  Te34      1.0  0.93349  0.23551  0.84475  1.0000
  O  Te35      1.0  0.94494  0.17871  0.15439  1.0000
  O  Te36      1.0  0.08636  0.08276  0.90383  1.0000
  Mg  Mg17      1.0  0.89924  0.23486  0.07096  1.0000
  Mg  Mg18      1.0  0.12203  0.08529  0.67775  1.0000
  C  Sn37      1.0  0.04300  0.81791  0.12332  1.0000
  C   C39       1.0  0.00820  0.80455  0.25498  1.0000
  C  Sn38      1.0  0.95753  0.82367  0.25399  1.0000
  C  Sn39      1.0  0.94129  0.85681  0.11853  1.0000
  C   C40       1.0  0.97469  0.86826  0.98695  1.0000
  C  Sn40      1.0  0.02537  0.84917  0.98785  1.0000
  O  Te37      1.0  0.09347  0.79835  0.12691  1.0000
  O  Te38      1.0  0.92345  0.80978  0.38706  1.0000
  O  Te39      1.0  0.89078  0.87638  0.11504  1.0000
  O  Te40      1.0  0.05944  0.86303  0.85487  1.0000
  Mg  Mg19      1.0  0.85867  0.84632  0.32513  1.0000
  Mg  Mg20      1.0  0.12422  0.82649  0.91662  1.0000
  C  Sn41      1.0  0.43622  0.85338  0.38008  1.0000
  C   C41       1.0  0.47190  0.86577  0.50856  1.0000
  C  Sn42      1.0  0.52257  0.84675  0.50129  1.0000
  C  Sn43      1.0  0.53791  0.81471  0.36265  1.0000
  C   C42       1.0  0.50224  0.80234  0.23425  1.0000
  C  Sn44      1.0  0.45156  0.82133  0.24144  1.0000
  O  Te41      1.0  0.38577  0.87282  0.38995  1.0000
  O  Te42      1.0  0.55755  0.85965  0.63128  1.0000
  O  Te43      1.0  0.58840  0.79526  0.35287  1.0000
  O  Te44      1.0  0.41659  0.80845  0.11154  1.0000
  Mg  Mg21      1.0  0.62192  0.82372  0.56080  1.0000
  Mg  Mg22      1.0  0.35222  0.84438  0.18183  1.0000
  C  Sn45      1.0  0.54763  0.12670  0.69017  1.0000
  C   C43       1.0  0.51363  0.11567  0.55546  1.0000
  C  Sn46      1.0  0.47649  0.15187  0.50459  1.0000
  C  Sn47      1.0  0.47329  0.20013  0.59007  1.0000
  C   C44       1.0  0.50727  0.21114  0.72466  1.0000
  C  Sn48      1.0  0.54442  0.17496  0.77565  1.0000
  O  Te45      1.0  0.58445  0.08993  0.73887  1.0000
  O  Te46      1.0  0.44292  0.13995  0.36960  1.0000
  O  Te47      1.0  0.43642  0.23690  0.54125  1.0000
  O  Te48      1.0  0.57798  0.18686  0.91052  1.0000
  Mg  Mg23      1.0  0.39936  0.20269  0.35018  1.0000
  Mg  Mg24      1.0  0.62158  0.12416  0.92999  1.0000
  C  Sn49      1.0  0.55392  0.22027  0.18515  1.0000
  C   C45       1.0  0.54275  0.25381  0.04857  1.0000
  C  Sn50      1.0  0.57777  0.28896  0.99479  1.0000
  C  Sn51      1.0  0.62775  0.29443  0.07920  1.0000
  C   C46       1.0  0.63891  0.26090  0.21566  1.0000
  C  Sn52      1.0  0.60252  0.22385  0.26956  1.0000
  O  Te49      1.0  0.51695  0.18353  0.23675  1.0000
  O  Te50      1.0  0.56570  0.32208  0.85798  1.0000
  O  Te51      1.0  0.66473  0.33121  0.02748  1.0000
  O  Te52      1.0  0.61457  0.19074  0.40626  1.0000
  Mg  Mg25      1.0  0.62882  0.36570  0.83477  1.0000
  Mg  Mg26      1.0  0.55150  0.14709  0.42952  1.0000
  C  Sn53      1.0  0.41422  0.69267  0.94805  1.0000
  C   C47       1.0  0.45092  0.73214  0.96922  1.0000
  C  Sn54      1.0  0.44371  0.78048  0.89148  1.0000
  C  Sn55      1.0  0.39887  0.78958  0.79055  1.0000
  C   C48       1.0  0.36220  0.75014  0.76945  1.0000
  C  Sn56      1.0  0.36938  0.70178  0.84713  1.0000
  O  Te53      1.0  0.42361  0.64654  0.02697  1.0000
  O  Te54      1.0  0.48095  0.81932  0.91445  1.0000
  O  Te55      1.0  0.39090  0.83765  0.71162  1.0000
  O  Te56      1.0  0.33217  0.66295  0.82422  1.0000
  Mg  Mg27      1.0  0.45265  0.87826  0.78102  1.0000
  Mg  Mg28      1.0  0.36042  0.60401  0.95766  1.0000
  C  Sn57      1.0  0.89672  0.68456  0.62432  1.0000
  C   C49       1.0  0.88416  0.71930  0.75509  1.0000
  C  Sn58      1.0  0.90413  0.76968  0.75207  1.0000
  C  Sn59      1.0  0.93731  0.78570  0.61543  1.0000
  C   C50       1.0  0.94984  0.75098  0.48475  1.0000
  C  Sn60      1.0  0.92990  0.70057  0.48768  1.0000
  O  Te57      1.0  0.87631  0.63437  0.62995  1.0000
  O  Te58      1.0  0.89103  0.80371  0.88428  1.0000
  O  Te59      1.0  0.95772  0.83594  0.60990  1.0000
  O  Te60      1.0  0.94297  0.66656  0.35556  1.0000
  Mg  Mg29      1.0  0.92856  0.86808  0.81952  1.0000
  Mg  Mg30      1.0  0.90545  0.60220  0.42014  1.0000
  C  Sn61      1.0  0.12207  0.29680  0.44086  1.0000
  C   C51       1.0  0.13319  0.26397  0.30338  1.0000
  C  Sn62      1.0  0.09684  0.22709  0.25063  1.0000
  C  Sn63      1.0  0.04834  0.22296  0.33702  1.0000
  C   C52       1.0  0.03723  0.25578  0.47439  1.0000
  C  Sn64      1.0  0.07357  0.29267  0.52725  1.0000
  O  Te61      1.0  0.15899  0.33339  0.49139  1.0000
  O  Te62      1.0  0.10885  0.19469  0.11289  1.0000
  O  Te63      1.0  0.01141  0.18633  0.28637  1.0000
  O  Te64      1.0  0.06157  0.32506  0.66488  1.0000
  Mg  Mg31      1.0  0.04584  0.15100  0.09175  1.0000
  Mg  Mg32      1.0  0.12454  0.36878  0.68607  1.0000
  C  Sn65      1.0  0.48937  0.47488  0.83478  1.0000
  C   C53       1.0  0.48234  0.52757  0.86702  1.0000
  C  Sn66      1.0  0.49411  0.54965  0.02968  1.0000
  C  Sn67      1.0  0.51191  0.51649  0.16287  1.0000
  C   C54       1.0  0.51894  0.46384  0.13059  1.0000
  C  Sn68      1.0  0.50718  0.44171  0.96797  1.0000
  O  Te65      1.0  0.47875  0.45553  0.67119  1.0000
  O  Te66      1.0  0.48677  0.60246  0.05885  1.0000
  O  Te67      1.0  0.52253  0.53588  0.32655  1.0000
  O  Te68      1.0  0.51451  0.38894  0.93877  1.0000
  Mg  Mg33      1.0  0.50656  0.61050  0.30314  1.0000
  Mg  Mg34      1.0  0.49476  0.38087  0.69452  1.0000
  C  Sn69      1.0  0.02547  0.47993  0.65181  1.0000
  C   C55       1.0  0.01340  0.53206  0.62493  1.0000
  C  Sn70      1.0  0.99465  0.54887  0.46580  1.0000
  C  Sn71      1.0  0.98780  0.51282  0.33074  1.0000
  C   C56       1.0  0.99987  0.46073  0.35766  1.0000
  C  Sn72      1.0  0.01863  0.44388  0.51676  1.0000
  O  Te69      1.0  0.04416  0.46399  0.81194  1.0000
  O  Te70      1.0  0.98286  0.60118  0.44197  1.0000
  O  Te71      1.0  0.96911  0.52881  0.17053  1.0000
  O  Te72      1.0  0.03040  0.39160  0.54062  1.0000
  Mg  Mg35      1.0  0.95850  0.60408  0.20085  1.0000
  Mg  Mg36      1.0  0.05474  0.38866  0.78171  1.0000
  C  Sn73      1.0  0.28985  0.78253  0.16662  1.0000
  C   C57       1.0  0.28456  0.77905  0.34537  1.0000
  C  Sn74      1.0  0.24037  0.75623  0.41886  1.0000
  C  Sn75      1.0  0.20065  0.73645  0.31146  1.0000
  C   C58       1.0  0.20596  0.73993  0.13283  1.0000
  C  Sn76      1.0  0.25013  0.76275  0.05922  1.0000
  O  Te73      1.0  0.33436  0.80549  0.09594  1.0000
  O  Te74      1.0  0.23595  0.75322  0.59791  1.0000
  O  Te75      1.0  0.15612  0.71348  0.38230  1.0000
  O  Te76      1.0  0.25318  0.76387  0.88029  1.0000
  Mg  Mg37      1.0  0.16800  0.71844  0.63312  1.0000
  Mg  Mg38      1.0  0.32112  0.79861  0.84494  1.0000
  C  Sn77      1.0  0.77941  0.24297  0.58537  1.0000
  C   C59       1.0  0.72671  0.23206  0.61098  1.0000
  C  Sn78      1.0  0.70391  0.23881  0.77269  1.0000
  C  Sn79      1.0  0.73440  0.25688  0.91168  1.0000
  C   C60       1.0  0.78706  0.26778  0.88603  1.0000
  C  Sn80      1.0  0.80990  0.26104  0.72437  1.0000
  O  Te77      1.0  0.80139  0.23594  0.42261  1.0000
  O  Te78      1.0  0.65115  0.22763  0.79517  1.0000
  O  Te79      1.0  0.71376  0.26579  0.07452  1.0000
  O  Te80      1.0  0.86262  0.27222  0.70185  1.0000
  Mg  Mg39      1.0  0.64034  0.24531  0.04099  1.0000
  Mg  Mg40      1.0  0.87485  0.25647  0.45607  1.0000
  C  Sn81      1.0  0.22754  0.25905  0.59334  1.0000
  C   C61       1.0  0.28042  0.26747  0.62271  1.0000
  C  Sn82      1.0  0.30127  0.25960  0.78637  1.0000
  C  Sn83      1.0  0.26860  0.24293  0.92353  1.0000
  C   C62       1.0  0.21576  0.23451  0.89412  1.0000
  C  Sn84      1.0  0.19488  0.24238  0.73050  1.0000
  O  Te81      1.0  0.20753  0.26716  0.42868  1.0000
  O  Te82      1.0  0.35424  0.26829  0.81261  1.0000
  O  Te83      1.0  0.29004  0.23671  0.08828  1.0000
  O  Te84      1.0  0.14194  0.23369  0.70422  1.0000
  Mg  Mg41      1.0  0.36463  0.25375  0.05983  1.0000
  Mg  Mg42      1.0  0.13289  0.25009  0.45705  1.0000
  C  Sn85      1.0  0.76753  0.77029  0.40488  1.0000
  C   C63       1.0  0.71466  0.76200  0.37494  1.0000
  C  Sn86      1.0  0.69762  0.74538  0.21399  1.0000
  C  Sn87      1.0  0.73418  0.73683  0.08019  1.0000
  C   C64       1.0  0.78701  0.74511  0.11017  1.0000
  C  Sn88      1.0  0.80408  0.76174  0.27108  1.0000
  O  Te85      1.0  0.78369  0.78690  0.56679  1.0000
  O  Te86      1.0  0.64457  0.73737  0.18712  1.0000
  O  Te87      1.0  0.71659  0.71831  0.91820  1.0000
  O  Te88      1.0  0.85710  0.76974  0.29799  1.0000
  Mg  Mg43      1.0  0.64025  0.71277  0.94450  1.0000
  Mg  Mg44      1.0  0.86008  0.79242  0.54057  1.0000
  C  Sn89      1.0  0.00797  0.04629  0.59100  1.0000
  C   C65       1.0  0.00853  0.04212  0.41180  1.0000
  C  Sn90      1.0  0.00737  0.99383  0.33391  1.0000
  C  Sn91      1.0  0.00098  0.94877  0.43728  1.0000
  C   C66       1.0  0.00041  0.95295  0.61636  1.0000
  C  Sn92      1.0  0.00158  0.00123  0.69436  1.0000
  O  Te89      1.0  0.01370  0.09497  0.66609  1.0000
  O  Te90      1.0  0.00808  0.99063  0.15451  1.0000
  O  Te91      1.0  0.99525  0.90007  0.36201  1.0000
  O  Te92      1.0  0.00087  0.00445  0.87365  1.0000
  Mg  Mg45      1.0  0.99876  0.91562  0.11250  1.0000
  Mg  Mg46      1.0  0.01016  0.07943  0.91578  1.0000
  C  Sn93      1.0  0.49331  0.95124  0.09655  1.0000
  C   C67       1.0  0.49164  0.95350  0.91718  1.0000
  C  Sn94      1.0  0.49334  0.00173  0.83711  1.0000
  C  Sn95      1.0  0.50000  0.04675  0.93843  1.0000
  C   C68       1.0  0.50167  0.04448  0.11768  1.0000
  C  Sn96      1.0  0.49996  0.99626  0.19787  1.0000
  O  Te93      1.0  0.48704  0.90263  0.17385  1.0000
  O  Te94      1.0  0.49291  0.00491  0.65758  1.0000
  O  Te95      1.0  0.50627  0.09539  0.86097  1.0000
  O  Te96      1.0  0.50040  0.99307  0.37728  1.0000
  Mg  Mg47      1.0  0.50296  0.07983  0.61218  1.0000
  Mg  Mg48      1.0  0.49038  0.91817  0.42281  1.0000
