data_image0
_chemical_formula_structural       C8H2C4H2C2H2N8C8H8C24NHNH2N2HC4H4NHNH2N2H5SnCSn2CSnTe4Mg2SnCSn2CSnTe4Mg2SnCSn2CSnTe4Mg2SnCSn2CSnTe4Mg2SnCSn2CSnTe4Mg2SnCSn2CSnTe4Mg2SnCSn2CSnTe4Mg2SnCSn2CSnTe4Mg2SnCSn2CSnTe4Mg2SnCSn2CSnTe4Mg2SnCSn2CSnTe4Mg2SnCSn2CSnTe4Mg2SnCSn2CSnTe4Mg2SnCSn2CSnTe4Mg2
_chemical_formula_sum              "C78 H30 N16 Sn56 Te56 Mg28"
_cell_length_a       25.6103
_cell_length_b       26.3755
_cell_length_c       8.1202
_cell_angle_alpha    90.2845
_cell_angle_beta     90.0076
_cell_angle_gamma    89.8193

_symmetry_space_group_name_H-M    'P1'
_space_group_IT_number       1

loop_
  _space_group_symop_operation_xyz
  'x, y, z'

loop_
  _atom_site_type_symbol
  _atom_site_label
  _atom_site_symmetry_multiplicity
  _atom_site_fract_x
  _atom_site_fract_y
  _atom_site_fract_z
  _atom_site_occupancy
  C   C1        1.0  0.24895  0.25055  0.25251  1.0000
  C   C2        1.0  0.75279  0.74900  0.74549  1.0000
  C   C3        1.0  0.71872  0.77602  0.87433  1.0000
  C   C4        1.0  0.79016  0.71879  0.85622  1.0000
  C   C5        1.0  0.73171  0.75923  0.03386  1.0000
  C   C6        1.0  0.77377  0.72191  0.02159  1.0000
  C   C7        1.0  0.70822  0.77960  0.17347  1.0000
  C   C8        1.0  0.79764  0.69347  0.14520  1.0000
  H   H1        1.0  0.72012  0.76805  0.29567  1.0000
  H   H2        1.0  0.78341  0.69547  0.27098  1.0000
  C   C9        1.0  0.67015  0.81757  0.15596  1.0000
  C   C10       1.0  0.84189  0.66415  0.10645  1.0000
  C   C11       1.0  0.65548  0.83315  0.99653  1.0000
  C   C12       1.0  0.85959  0.66294  0.94201  1.0000
  H   H3        1.0  0.62490  0.86148  0.98189  1.0000
  H   H4        1.0  0.89291  0.63955  0.90792  1.0000
  C   C13       1.0  0.67963  0.81253  0.85651  1.0000
  C   C14       1.0  0.83353  0.68903  0.81713  1.0000
  H   H5        1.0  0.66805  0.82625  0.73594  1.0000
  H   H6        1.0  0.84830  0.68582  0.69197  1.0000
  N   N1        1.0  0.34663  0.36167  0.77875  1.0000
  N   N2        1.0  0.64532  0.62125  0.27963  1.0000
  N   N3        1.0  0.15397  0.14137  0.78367  1.0000
  N   N4        1.0  0.84242  0.87599  0.24367  1.0000
  N   N5        1.0  0.64721  0.83728  0.29999  1.0000
  N   N6        1.0  0.36203  0.15431  0.72375  1.0000
  N   N7        1.0  0.87208  0.64018  0.22880  1.0000
  N   N8        1.0  0.13168  0.34087  0.72632  1.0000
  C   C15       1.0  0.39437  0.35470  0.82709  1.0000
  C   C16       1.0  0.60048  0.63184  0.21487  1.0000
  C   C17       1.0  0.10664  0.14860  0.83499  1.0000
  C   C18       1.0  0.89065  0.87061  0.20000  1.0000
  C   C19       1.0  0.64283  0.88581  0.31664  1.0000
  C   C20       1.0  0.35311  0.10924  0.66629  1.0000
  C   C21       1.0  0.85001  0.61299  0.34085  1.0000
  C   C22       1.0  0.14119  0.38557  0.66883  1.0000
  H   H7        1.0  0.42205  0.33171  0.75459  1.0000
  H   H8        1.0  0.57389  0.66042  0.26811  1.0000
  H   H9        1.0  0.07867  0.17199  0.76580  1.0000
  H   H10       1.0  0.91806  0.84781  0.27379  1.0000
  H   H11       1.0  0.65928  0.91171  0.22450  1.0000
  H   H12       1.0  0.32744  0.08234  0.73012  1.0000
  H   H13       1.0  0.80809  0.60408  0.33547  1.0000
  H   H14       1.0  0.16619  0.41255  0.73596  1.0000
  C   C23       1.0  0.47968  0.46193  0.38616  1.0000
  C   C24       1.0  0.52100  0.52528  0.65060  1.0000
  C   C25       1.0  0.02579  0.03432  0.38075  1.0000
  C   C26       1.0  0.98256  0.97206  0.64519  1.0000
  C   C27       1.0  0.53366  0.98262  0.85610  1.0000
  C   C28       1.0  0.47108  0.02680  0.12245  1.0000
  C   C29       1.0  0.97086  0.52170  0.86489  1.0000
  C   C30       1.0  0.03785  0.47385  0.11155  1.0000
  C   C31       1.0  0.45159  0.47213  0.53219  1.0000
  C   C32       1.0  0.54978  0.51407  0.50752  1.0000
  C   C33       1.0  0.05138  0.02735  0.53269  1.0000
  C   C34       1.0  0.95741  0.97863  0.49250  1.0000
  C   C35       1.0  0.52759  0.95929  0.01067  1.0000
  C   C36       1.0  0.47843  0.05107  0.97011  1.0000
  C   C37       1.0  0.98879  0.54754  0.00555  1.0000
  C   C38       1.0  0.01929  0.44790  0.97159  1.0000
  C   C39       1.0  0.47059  0.50404  0.66027  1.0000
  C   C40       1.0  0.52969  0.48412  0.37957  1.0000
  C   C41       1.0  0.03145  0.99652  0.66164  1.0000
  C   C42       1.0  0.97813  0.00808  0.36566  1.0000
  C   C43       1.0  0.49779  0.98032  0.13855  1.0000
  C   C44       1.0  0.50926  0.03059  0.83969  1.0000
  C   C45       1.0  0.02187  0.52522  0.12595  1.0000
  C   C46       1.0  0.98714  0.47082  0.85309  1.0000
  N   N9        1.0  0.43499  0.50629  0.78969  1.0000
  H   H15       1.0  0.55283  0.47937  0.26817  1.0000
  N   N10       1.0  0.06528  0.99783  0.79603  1.0000
  H   H16       1.0  0.95736  0.00928  0.24892  1.0000
  H   H17       1.0  0.49668  0.96089  0.25644  1.0000
  N   N11       1.0  0.50821  0.06315  0.70518  1.0000
  N   N12       1.0  0.03146  0.55989  0.25228  1.0000
  H   H18       1.0  0.97581  0.44914  0.74463  1.0000
  C   C47       1.0  0.39651  0.47641  0.74437  1.0000
  C   C48       1.0  0.10332  0.02835  0.75270  1.0000
  C   C49       1.0  0.47800  0.10122  0.75028  1.0000
  C   C50       1.0  0.00489  0.60081  0.21211  1.0000
  H   H19       1.0  0.36220  0.46776  0.81665  1.0000
  H   H20       1.0  0.13641  0.03885  0.82827  1.0000
  H   H21       1.0  0.46792  0.13371  0.67558  1.0000
  H   H22       1.0  0.00256  0.63538  0.28435  1.0000
  N   N13       1.0  0.40403  0.45483  0.59069  1.0000
  H   H23       1.0  0.58831  0.53077  0.49286  1.0000
  N   N14       1.0  0.09729  0.04735  0.59586  1.0000
  H   H24       1.0  0.92082  0.95895  0.46988  1.0000
  H   H25       1.0  0.54812  0.92390  0.03422  1.0000
  N   N15       1.0  0.45861  0.09602  0.90766  1.0000
  N   N16       1.0  0.97920  0.59621  0.06421  1.0000
  H   H26       1.0  0.03133  0.40878  0.95133  1.0000
  H   H27       1.0  0.38134  0.42738  0.53985  1.0000
  H   H28       1.0  0.11936  0.07515  0.54535  1.0000
  H   H29       1.0  0.43147  0.11889  0.96128  1.0000
  H   H30       1.0  0.94973  0.61963  0.02923  1.0000
  C  Sn1       1.0  0.27233  0.35276  0.53781  1.0000
  C   C51       1.0  0.31019  0.33490  0.64726  1.0000
  C  Sn2       1.0  0.33883  0.29114  0.61026  1.0000
  C  Sn3       1.0  0.32946  0.26471  0.46068  1.0000
  C   C52       1.0  0.29163  0.28258  0.35131  1.0000
  C  Sn4       1.0  0.26296  0.32632  0.38823  1.0000
  O  Te1       1.0  0.24416  0.39658  0.57733  1.0000
  O  Te2       1.0  0.37646  0.27401  0.72164  1.0000
  O  Te3       1.0  0.35767  0.22086  0.42123  1.0000
  O  Te4       1.0  0.22536  0.34346  0.27693  1.0000
  Mg  Mg1       1.0  0.40477  0.21252  0.61252  1.0000
  Mg  Mg2       1.0  0.19705  0.40496  0.38588  1.0000
  C  Sn5       1.0  0.66617  0.71518  0.41759  1.0000
  C   C53       1.0  0.67172  0.66330  0.38627  1.0000
  C  Sn6       1.0  0.69823  0.63229  0.49763  1.0000
  C  Sn7       1.0  0.71962  0.65358  0.64341  1.0000
  C   C54       1.0  0.71405  0.70543  0.67469  1.0000
  C  Sn8       1.0  0.68755  0.73647  0.56337  1.0000
  O  Te5       1.0  0.63951  0.74546  0.30455  1.0000
  O  Te6       1.0  0.70330  0.58053  0.46360  1.0000
  O  Te7       1.0  0.74629  0.62325  0.75647  1.0000
  O  Te8       1.0  0.68247  0.78820  0.59735  1.0000
  Mg  Mg3       1.0  0.74296  0.55489  0.65539  1.0000
  Mg  Mg4       1.0  0.64280  0.81386  0.40570  1.0000
  C  Sn9       1.0  0.22672  0.14941  0.54037  1.0000
  C   C55       1.0  0.18953  0.16781  0.65171  1.0000
  C  Sn10      1.0  0.16137  0.21193  0.61699  1.0000
  C  Sn11      1.0  0.17055  0.23819  0.46783  1.0000
  C   C56       1.0  0.20772  0.21979  0.35657  1.0000
  C  Sn12      1.0  0.23590  0.17568  0.39121  1.0000
  O  Te9       1.0  0.25441  0.10524  0.57761  1.0000
  O  Te10      1.0  0.12440  0.22960  0.73023  1.0000
  O  Te11      1.0  0.14282  0.28240  0.43065  1.0000
  O  Te12      1.0  0.27284  0.15800  0.27805  1.0000
  Mg  Mg5       1.0  0.09656  0.29142  0.62389  1.0000
  Mg  Mg6       1.0  0.30068  0.09617  0.38422  1.0000
  C  Sn13      1.0  0.80176  0.86627  0.55870  1.0000
  C   C57       1.0  0.82986  0.85063  0.41985  1.0000
  C  Sn14      1.0  0.83043  0.79965  0.37248  1.0000
  C  Sn15      1.0  0.80230  0.76354  0.46577  1.0000
  C   C58       1.0  0.77422  0.77918  0.60451  1.0000
  C  Sn16      1.0  0.77363  0.83016  0.65199  1.0000
  O  Te13      1.0  0.80173  0.91743  0.60378  1.0000
  O  Te14      1.0  0.85883  0.78492  0.23323  1.0000
  O  Te15      1.0  0.80235  0.71234  0.42057  1.0000
  O  Te16      1.0  0.74525  0.84489  0.79113  1.0000
  Mg  Mg7       1.0  0.84684  0.71087  0.22129  1.0000
  Mg  Mg8       1.0  0.75719  0.91892  0.80313  1.0000
  C  Sn17      1.0  0.27038  0.17291  0.89819  1.0000
  C   C59       1.0  0.32225  0.17888  0.84875  1.0000
  C  Sn18      1.0  0.35830  0.20235  0.95307  1.0000
  C  Sn19      1.0  0.34214  0.21867  0.11014  1.0000
  C   C60       1.0  0.29030  0.21268  0.15951  1.0000
  C  Sn20      1.0  0.25422  0.18922  0.05525  1.0000
  O  Te17      1.0  0.23501  0.14933  0.79189  1.0000
  O  Te18      1.0  0.40995  0.20791  0.90090  1.0000
  O  Te19      1.0  0.37756  0.24226  0.21644  1.0000
  O  Te20      1.0  0.20261  0.18365  0.10736  1.0000
  Mg  Mg9       1.0  0.44358  0.24100  0.08976  1.0000
  Mg  Mg10      1.0  0.16895  0.15055  0.91865  1.0000
  C  Sn21      1.0  0.15764  0.25927  0.04848  1.0000
  C   C61       1.0  0.20892  0.26848  0.09909  1.0000
  C  Sn22      1.0  0.23587  0.31077  0.04119  1.0000
  C  Sn23      1.0  0.21108  0.34610  0.93048  1.0000
  C   C62       1.0  0.15984  0.33689  0.87995  1.0000
  C  Sn24      1.0  0.13286  0.29461  0.93776  1.0000
  O  Te21      1.0  0.13145  0.21677  0.10793  1.0000
  O  Te22      1.0  0.28710  0.31917  0.09350  1.0000
  O  Te23      1.0  0.23733  0.38863  0.87104  1.0000
  O  Te24      1.0  0.08165  0.28620  0.88554  1.0000
  Mg  Mg11      1.0  0.30658  0.38385  0.97819  1.0000
  Mg  Mg12      1.0  0.06213  0.22155  0.00083  1.0000
  C  Sn25      1.0  0.47569  0.37120  0.05643  1.0000
  C   C63       1.0  0.42366  0.36872  0.00520  1.0000
  C  Sn26      1.0  0.38668  0.40258  0.06877  1.0000
  C  Sn27      1.0  0.40202  0.43972  0.18590  1.0000
  C   C64       1.0  0.45403  0.44219  0.23704  1.0000
  C  Sn28      1.0  0.49104  0.40834  0.17356  1.0000
  O  Te25      1.0  0.51204  0.33850  0.99124  1.0000
  O  Te26      1.0  0.33489  0.39935  0.01572  1.0000
  O  Te27      1.0  0.36566  0.47396  0.25108  1.0000
  O  Te28      1.0  0.54280  0.41156  0.22652  1.0000
  Mg  Mg13      1.0  0.29981  0.45445  0.14034  1.0000
  Mg  Mg14      1.0  0.57791  0.35651  0.10193  1.0000
  C  Sn29      1.0  0.51700  0.60866  0.87455  1.0000
  C   C65       1.0  0.54200  0.57170  0.77884  1.0000
  C  Sn30      1.0  0.58767  0.54843  0.83508  1.0000
  C  Sn31      1.0  0.60877  0.56236  0.99027  1.0000
  C   C66       1.0  0.58373  0.59776  0.08589  1.0000
  C  Sn32      1.0  0.53806  0.62107  0.02974  1.0000
  O  Te29      1.0  0.47138  0.63143  0.81589  1.0000
  O  Te30      1.0  0.61197  0.51159  0.73717  1.0000
  O  Te31      1.0  0.65438  0.53803  0.04888  1.0000
  O  Te32      1.0  0.51376  0.65788  0.12756  1.0000
  Mg  Mg15      1.0  0.67324  0.49142  0.87063  1.0000
  Mg  Mg16      1.0  0.45251  0.67958  0.99428  1.0000
  C  Sn33      1.0  0.10907  0.08804  0.22646  1.0000
  C   C67       1.0  0.05697  0.07834  0.26623  1.0000
  C  Sn34      1.0  0.01732  0.08835  0.15267  1.0000
  C  Sn35      1.0  0.03005  0.10997  0.99606  1.0000
  C   C68       1.0  0.08212  0.11965  0.95635  1.0000
  C  Sn36      1.0  0.12176  0.10813  0.06985  1.0000
  O  Te33      1.0  0.14807  0.07774  0.34189  1.0000
  O  Te34      1.0  0.96552  0.07836  0.19526  1.0000
  O  Te35      1.0  0.99100  0.12026  0.88062  1.0000
  O  Te36      1.0  0.17353  0.11810  0.02732  1.0000
  Mg  Mg17      1.0  0.92627  0.10024  0.99613  1.0000
  Mg  Mg18      1.0  0.21285  0.09774  0.22630  1.0000
  C  Sn37      1.0  0.89520  0.94754  0.84345  1.0000
  C   C69       1.0  0.94819  0.95362  0.80787  1.0000
  C  Sn38      1.0  0.98579  0.92474  0.88988  1.0000
  C  Sn39      1.0  0.97005  0.88747  0.00991  1.0000
  C   C70       1.0  0.91709  0.88139  0.04542  1.0000
  C  Sn40      1.0  0.87950  0.91180  0.96348  1.0000
  O  Te37      1.0  0.85829  0.97682  0.75994  1.0000
  O  Te38      1.0  0.03853  0.93150  0.85224  1.0000
  O  Te39      1.0  0.00702  0.85818  0.09343  1.0000
  O  Te40      1.0  0.82675  0.90351  0.00105  1.0000
  Mg  Mg19      1.0  0.07415  0.88268  0.99910  1.0000
  Mg  Mg20      1.0  0.79114  0.95382  0.85421  1.0000
  C  Sn41      1.0  0.62109  0.97153  0.51579  1.0000
  C   C71       1.0  0.62814  0.91970  0.48668  1.0000
  C  Sn42      1.0  0.59712  0.88419  0.56766  1.0000
  C  Sn43      1.0  0.55822  0.90084  0.68002  1.0000
  C   C72       1.0  0.55117  0.95265  0.70906  1.0000
  C  Sn44      1.0  0.58218  0.98818  0.62815  1.0000
  O  Te41      1.0  0.65579  0.00635  0.43345  1.0000
  O  Te42      1.0  0.60492  0.83257  0.53658  1.0000
  O  Te43      1.0  0.52676  0.86597  0.76237  1.0000
  O  Te44      1.0  0.57764  0.03978  0.65916  1.0000
  Mg  Mg21      1.0  0.55226  0.79976  0.67882  1.0000
  Mg  Mg22      1.0  0.63026  0.07262  0.51693  1.0000
  C  Sn45      1.0  0.38994  0.01889  0.36149  1.0000
  C   C73       1.0  0.42116  0.04457  0.24826  1.0000
  C  Sn46      1.0  0.43608  0.09468  0.27805  1.0000
  C  Sn47      1.0  0.41947  0.11964  0.42411  1.0000
  C   C74       1.0  0.38828  0.09397  0.53725  1.0000
  C  Sn48      1.0  0.37334  0.04385  0.50754  1.0000
  O  Te45      1.0  0.37226  0.96881  0.32918  1.0000
  O  Te46      1.0  0.46729  0.11957  0.16300  1.0000
  O  Te47      1.0  0.43394  0.16977  0.45634  1.0000
  O  Te48      1.0  0.34215  0.01897  0.62251  1.0000
  Mg  Mg23      1.0  0.47678  0.18762  0.26235  1.0000
  Mg  Mg24      1.0  0.32942  0.95091  0.52333  1.0000
  C  Sn49      1.0  0.85881  0.54559  0.61245  1.0000
  C   C75       1.0  0.86896  0.59054  0.52804  1.0000
  C  Sn50      1.0  0.91831  0.61282  0.53607  1.0000
  C  Sn51      1.0  0.95837  0.58968  0.63037  1.0000
  C   C76       1.0  0.94821  0.54475  0.71469  1.0000
  C  Sn52      1.0  0.89887  0.52245  0.70675  1.0000
  O  Te49      1.0  0.80919  0.52398  0.60267  1.0000
  O  Te50      1.0  0.92752  0.65777  0.45067  1.0000
  O  Te51      1.0  0.00802  0.61133  0.64009  1.0000
  O  Te52      1.0  0.88965  0.47752  0.79206  1.0000
  Mg  Mg25      1.0  0.00149  0.67266  0.50203  1.0000
  Mg  Mg26      1.0  0.81571  0.46258  0.74071  1.0000
  C  Sn53      1.0  0.09556  0.37307  0.34740  1.0000
  C   C77       1.0  0.12615  0.39683  0.46739  1.0000
  C  Sn54      1.0  0.12555  0.44957  0.48402  1.0000
  C  Sn55      1.0  0.09368  0.47918  0.37859  1.0000
  C   C78       1.0  0.06310  0.45542  0.25870  1.0000
  C  Sn56      1.0  0.06368  0.40268  0.24197  1.0000
  O  Te53      1.0  0.09676  0.32030  0.33299  1.0000
  O  Te54      1.0  0.15649  0.47247  0.60486  1.0000
  O  Te55      1.0  0.09249  0.53199  0.39309  1.0000
  O  Te56      1.0  0.03276  0.37979  0.12124  1.0000
  Mg  Mg27      1.0  0.14149  0.54559  0.57647  1.0000
  Mg  Mg28      1.0  0.04771  0.30667  0.14957  1.0000
