data_image0
_chemical_formula_structural       H72C132N36SnCSn2CSnTe4Mg2SnCSn2CSnTe4Mg2SnCSn2CSnTe4Mg2SnCSn2CSnTe4Mg2SnCSn2CSnTe4Mg2SnCSn2CSnTe4Mg2SnCSn2CSnTe4Mg2SnCSn2CSnTe4Mg2SnCSn2CSnTe4Mg2SnCSn2CSnTe4Mg2SnCSn2CSnTe4Mg2SnCSn2CSnTe4Mg2SnCSn2CSnTe4Mg2SnCSn2CSnTe4Mg2SnCSn2CSnTe4Mg2SnCSn2CSnTe4Mg2SnCSn2CSnTe4Mg2SnCSn2CSnTe4Mg2SnCSn2CSnTe4Mg2SnCSn2CSnTe4Mg2SnCSn2CSnTe4Mg2SnCSn2CSnTe4Mg2SnCSn2CSnTe4Mg2SnCSn2CSnTe4Mg2SnCSn2CSnTe4Mg2SnCSn2CSnTe4Mg2SnCSn2CSnTe4Mg2SnCSn2CSnTe4Mg2SnCSn2CSnTe4Mg2SnCSn2CSnTe4Mg2SnCSn2CSnTe4Mg2SnCSn2CSnTe4Mg2SnCSn2CSnTe4Mg2SnCSn2CSnTe4Mg2SnCSn2CSnTe4Mg2SnCSn2CSnTe4Mg2SnCSn2CSnTe4Mg2SnCSn2CSnTe4Mg2SnCSn2CSnTe4Mg2SnCSn2CSnTe4Mg2SnCSn2CSnTe4Mg2SnCSn2CSnTe4Mg2SnCSn2CSnTe4Mg2SnCSn2CSnTe4Mg2SnCSn2CSnTe4Mg2SnCSn2CSnTe4Mg2SnCSn2CSnTe4Mg2SnCSn2CSnTe4Mg2SnCSn2CSnTe4Mg2SnCSn2CSnTe4Mg2SnCSn2CSnTe4Mg2SnCSn2CSnTe4Mg2SnCSn2CSnTe4Mg2SnCSn2CSnTe4Mg2SnCSn2CSnTe4Mg2SnCSn2CSnTe4Mg2SnCSn2CSnTe4Mg2SnCSn2CSnTe4Mg2SnCSn2CSnTe4Mg2SnCSn2CSnTe4Mg2SnCSn2CSnTe4Mg2SnCSn2CSnTe4Mg2SnCSn2CSnTe4Mg2SnCSn2CSnTe4Mg2SnCSn2CSnTe4Mg2SnCSn2CSnTe4Mg2SnCSn2CSnTe4Mg2SnCSn2CSnTe4Mg2SnCSn2CSnTe4Mg2SnCSn2CSnTe4Mg2SnCSn2CSnTe4Mg2SnCSn2CSnTe4Mg2
_chemical_formula_sum              "H72 C276 N36 Sn288 Te288 Mg144"
_cell_length_a       49.6612
_cell_length_b       49.5933
_cell_length_c       9.87929
_cell_angle_alpha    90.0571
_cell_angle_beta     89.7735
_cell_angle_gamma    120.112

_symmetry_space_group_name_H-M    'P1'
_space_group_IT_number       1

loop_
  _space_group_symop_operation_xyz
  'x, y, z'

loop_
  _atom_site_type_symbol
  _atom_site_label
  _atom_site_symmetry_multiplicity
  _atom_site_fract_x
  _atom_site_fract_y
  _atom_site_fract_z
  _atom_site_occupancy
  H   H1        1.0  0.32467  0.20789  0.26484  1.0000
  H   H2        1.0  0.79242  0.11783  0.26019  1.0000
  H   H3        1.0  0.88260  0.67499  0.27105  1.0000
  H   H4        1.0  0.67321  0.79241  0.26137  1.0000
  H   H5        1.0  0.20653  0.88238  0.26865  1.0000
  H   H6        1.0  0.11770  0.32568  0.24946  1.0000
  H   H7        1.0  0.31805  0.11806  0.26792  1.0000
  H   H8        1.0  0.88176  0.20186  0.26211  1.0000
  H   H9        1.0  0.79882  0.68013  0.26715  1.0000
  H   H10       1.0  0.68002  0.88228  0.27002  1.0000
  H   H11       1.0  0.11706  0.79858  0.28002  1.0000
  H   H12       1.0  0.20137  0.32017  0.26091  1.0000
  H   H13       1.0  0.40551  0.20064  0.35181  1.0000
  H   H14       1.0  0.79894  0.20568  0.35061  1.0000
  H   H15       1.0  0.79471  0.59293  0.35080  1.0000
  H   H16       1.0  0.59259  0.79960  0.35639  1.0000
  H   H17       1.0  0.20026  0.79370  0.33616  1.0000
  H   H18       1.0  0.20509  0.40701  0.34557  1.0000
  H   H19       1.0  0.45705  0.34923  0.46252  1.0000
  H   H20       1.0  0.65047  0.10647  0.46784  1.0000
  H   H21       1.0  0.89336  0.54341  0.45357  1.0000
  H   H22       1.0  0.54256  0.65023  0.45740  1.0000
  H   H23       1.0  0.34846  0.89110  0.45845  1.0000
  H   H24       1.0  0.10541  0.45553  0.45300  1.0000
  H   H25       1.0  0.17873  0.10693  0.06924  1.0000
  H   H26       1.0  0.88921  0.06870  0.07681  1.0000
  H   H27       1.0  0.93745  0.82286  0.13932  1.0000
  H   H28       1.0  0.81942  0.89152  0.06414  1.0000
  H   H29       1.0  0.10303  0.92405  0.06939  1.0000
  H   H30       1.0  0.06878  0.17940  0.06874  1.0000
  H   H31       1.0  0.41006  0.06016  0.35893  1.0000
  H   H32       1.0  0.93757  0.35137  0.36957  1.0000
  H   H33       1.0  0.64860  0.58782  0.32978  1.0000
  H   H34       1.0  0.58761  0.93995  0.36918  1.0000
  H   H35       1.0  0.06227  0.64845  0.38111  1.0000
  H   H36       1.0  0.34984  0.41061  0.37795  1.0000
  H   H37       1.0  0.32610  0.20617  0.77457  1.0000
  H   H38       1.0  0.79347  0.11780  0.77354  1.0000
  H   H39       1.0  0.88203  0.67414  0.77399  1.0000
  H   H40       1.0  0.67547  0.79284  0.76724  1.0000
  H   H41       1.0  0.20761  0.88249  0.77081  1.0000
  H   H42       1.0  0.11932  0.32596  0.76580  1.0000
  H   H43       1.0  0.31941  0.11646  0.79929  1.0000
  H   H44       1.0  0.88268  0.20208  0.78352  1.0000
  H   H45       1.0  0.79903  0.68065  0.80746  1.0000
  H   H46       1.0  0.68159  0.88244  0.78666  1.0000
  H   H47       1.0  0.11829  0.79849  0.79528  1.0000
  H   H48       1.0  0.20252  0.32004  0.79940  1.0000
  H   H49       1.0  0.40651  0.19967  0.87962  1.0000
  H   H50       1.0  0.79928  0.20533  0.86429  1.0000
  H   H51       1.0  0.79413  0.59228  0.86034  1.0000
  H   H52       1.0  0.59437  0.79907  0.86393  1.0000
  H   H53       1.0  0.20181  0.79593  0.87894  1.0000
  H   H54       1.0  0.20619  0.40740  0.86814  1.0000
  H   H55       1.0  0.45879  0.34912  0.96056  1.0000
  H   H56       1.0  0.65097  0.10874  0.96534  1.0000
  H   H57       1.0  0.89123  0.54056  0.94841  1.0000
  H   H58       1.0  0.54184  0.65029  0.95035  1.0000
  H   H59       1.0  0.35000  0.89384  0.96249  1.0000
  H   H60       1.0  0.10984  0.45986  0.94669  1.0000
  H   H61       1.0  0.18110  0.11065  0.58738  1.0000
  H   H62       1.0  0.88951  0.06866  0.58646  1.0000
  H   H63       1.0  0.92760  0.82015  0.58669  1.0000
  H   H64       1.0  0.82242  0.88721  0.60563  1.0000
  H   H65       1.0  0.11406  0.93478  0.60625  1.0000
  H   H66       1.0  0.07406  0.18098  0.57080  1.0000
  H   H67       1.0  0.41260  0.05974  0.88547  1.0000
  H   H68       1.0  0.93819  0.35142  0.88215  1.0000
  H   H69       1.0  0.64883  0.58577  0.89109  1.0000
  H   H70       1.0  0.58953  0.93921  0.89444  1.0000
  H   H71       1.0  0.06208  0.64968  0.89850  1.0000
  H   H72       1.0  0.35135  0.41376  0.91611  1.0000
  C   C1        1.0  0.98342  0.01736  0.19972  1.0000
  C   C2        1.0  0.98186  0.96706  0.20136  1.0000
  C   C3        1.0  0.03232  0.01585  0.20109  1.0000
  C   C4        1.0  0.01490  0.98266  0.20136  1.0000
  C   C5        1.0  0.01650  0.03311  0.20056  1.0000
  C   C6        1.0  0.96590  0.98419  0.20019  1.0000
  C   C7        1.0  0.44838  0.34079  0.35980  1.0000
  C   C8        1.0  0.65904  0.10630  0.36501  1.0000
  C   C9        1.0  0.89275  0.55180  0.35109  1.0000
  C   C10       1.0  0.55153  0.65903  0.35513  1.0000
  C   C11       1.0  0.34022  0.89291  0.35739  1.0000
  C   C12       1.0  0.10524  0.44699  0.34991  1.0000
  C   C13       1.0  0.18548  0.09990  0.16291  1.0000
  C   C14       1.0  0.89919  0.08583  0.15931  1.0000
  C   C15       1.0  0.91660  0.81493  0.20319  1.0000
  C   C16       1.0  0.81254  0.89874  0.15736  1.0000
  C   C17       1.0  0.09787  0.91235  0.16859  1.0000
  C   C18       1.0  0.08513  0.18650  0.15399  1.0000
  C   C19       1.0  0.36742  0.20814  0.30878  1.0000
  C   C20       1.0  0.79170  0.16005  0.30596  1.0000
  C   C21       1.0  0.84005  0.63166  0.30995  1.0000
  C   C22       1.0  0.63055  0.79214  0.30869  1.0000
  C   C23       1.0  0.20751  0.83982  0.30412  1.0000
  C   C24       1.0  0.15977  0.36869  0.29717  1.0000
  C   C25       1.0  0.33568  0.19380  0.27612  1.0000
  C   C26       1.0  0.80632  0.14299  0.27172  1.0000
  C   C27       1.0  0.85739  0.66362  0.28026  1.0000
  C   C28       1.0  0.66224  0.80651  0.27437  1.0000
  C   C29       1.0  0.19275  0.85714  0.27810  1.0000
  C   C30       1.0  0.14278  0.33696  0.26280  1.0000
  C   C31       1.0  0.31755  0.16121  0.26533  1.0000
  C   C32       1.0  0.83887  0.15772  0.25958  1.0000
  C   C33       1.0  0.84267  0.68144  0.27011  1.0000
  C   C34       1.0  0.68043  0.83909  0.26431  1.0000
  C   C35       1.0  0.16014  0.84249  0.27161  1.0000
  C   C36       1.0  0.15743  0.31904  0.25321  1.0000
  C   C37       1.0  0.33184  0.14315  0.28247  1.0000
  C   C38       1.0  0.85669  0.19018  0.27723  1.0000
  C   C39       1.0  0.81014  0.66648  0.28297  1.0000
  C   C40       1.0  0.66620  0.85717  0.28409  1.0000
  C   C41       1.0  0.14225  0.81003  0.28918  1.0000
  C   C42       1.0  0.18971  0.33360  0.27459  1.0000
  C   C43       1.0  0.36372  0.15701  0.31126  1.0000
  C   C44       1.0  0.84253  0.20787  0.30761  1.0000
  C   C45       1.0  0.79211  0.63437  0.30991  1.0000
  C   C46       1.0  0.63433  0.84331  0.31486  1.0000
  C   C47       1.0  0.15653  0.79210  0.30997  1.0000
  C   C48       1.0  0.20733  0.36540  0.30676  1.0000
  C   C49       1.0  0.38093  0.18947  0.32681  1.0000
  C   C50       1.0  0.81011  0.19234  0.32394  1.0000
  C   C51       1.0  0.80775  0.61763  0.32661  1.0000
  C   C52       1.0  0.61711  0.81080  0.32948  1.0000
  C   C53       1.0  0.18906  0.80738  0.31796  1.0000
  C   C54       1.0  0.19188  0.38245  0.31905  1.0000
  C   C55       1.0  0.42572  0.08541  0.34554  1.0000
  C   C56       1.0  0.91241  0.34167  0.35481  1.0000
  C   C57       1.0  0.65796  0.57184  0.33116  1.0000
  C   C58       1.0  0.57190  0.91457  0.36141  1.0000
  C   C59       1.0  0.08710  0.65826  0.35646  1.0000
  C   C60       1.0  0.34062  0.42647  0.36275  1.0000
  C   C61       1.0  0.51328  0.00033  0.31512  1.0000
  C   C62       1.0  0.99957  0.51401  0.30245  1.0000
  C   C63       1.0  0.48586  0.48599  0.31021  1.0000
  C   C64       1.0  0.48573  0.00020  0.31338  1.0000
  C   C65       1.0  0.99900  0.48619  0.30521  1.0000
  C   C66       1.0  0.51334  0.51362  0.30872  1.0000
  C   C67       1.0  0.98518  0.01785  0.69554  1.0000
  C   C68       1.0  0.98328  0.96719  0.69890  1.0000
  C   C69       1.0  0.03385  0.01613  0.69765  1.0000
  C   C70       1.0  0.01643  0.98304  0.70018  1.0000
  C   C71       1.0  0.01828  0.03359  0.69589  1.0000
  C   C72       1.0  0.96781  0.98477  0.69593  1.0000
  C   C73       1.0  0.44923  0.34031  0.85926  1.0000
  C   C74       1.0  0.65966  0.10776  0.86380  1.0000
  C   C75       1.0  0.89221  0.55055  0.84779  1.0000
  C   C76       1.0  0.55193  0.65885  0.84922  1.0000
  C   C77       1.0  0.34146  0.89338  0.85933  1.0000
  C   C78       1.0  0.10780  0.44895  0.84728  1.0000
  C   C79       1.0  0.18734  0.10057  0.67247  1.0000
  C   C80       1.0  0.90001  0.08586  0.66839  1.0000
  C   C81       1.0  0.91392  0.81365  0.68118  1.0000
  C   C82       1.0  0.81510  0.89872  0.68057  1.0000
  C   C83       1.0  0.10210  0.91589  0.68063  1.0000
  C   C84       1.0  0.08829  0.18728  0.66311  1.0000
  C   C85       1.0  0.36870  0.20692  0.82724  1.0000
  C   C86       1.0  0.79244  0.15987  0.81938  1.0000
  C   C87       1.0  0.83976  0.63097  0.81855  1.0000
  C   C88       1.0  0.63254  0.79198  0.81459  1.0000
  C   C89       1.0  0.20859  0.84077  0.82392  1.0000
  C   C90       1.0  0.16102  0.36901  0.81798  1.0000
  C   C91       1.0  0.33707  0.19222  0.79211  1.0000
  C   C92       1.0  0.80731  0.14295  0.78643  1.0000
  C   C93       1.0  0.85702  0.66304  0.79020  1.0000
  C   C94       1.0  0.66438  0.80678  0.78215  1.0000
  C   C95       1.0  0.19371  0.85750  0.78844  1.0000
  C   C96       1.0  0.14422  0.33717  0.78461  1.0000
  C   C97       1.0  0.31894  0.15953  0.78565  1.0000
  C   C98       1.0  0.83997  0.15787  0.77692  1.0000
  C   C99       1.0  0.84261  0.68128  0.78917  1.0000
  C   C100      1.0  0.68249  0.83949  0.77535  1.0000
  C   C101      1.0  0.16101  0.84264  0.78201  1.0000
  C   C102      1.0  0.15887  0.31916  0.78113  1.0000
  C   C103      1.0  0.33315  0.14163  0.81070  1.0000
  C   C104      1.0  0.85757  0.19027  0.79744  1.0000
  C   C105      1.0  0.81039  0.66679  0.81334  1.0000
  C   C106      1.0  0.66802  0.85725  0.79857  1.0000
  C   C107      1.0  0.14343  0.81041  0.80742  1.0000
  C   C108      1.0  0.19092  0.33364  0.80817  1.0000
  C   C109      1.0  0.36495  0.15577  0.84201  1.0000
  C   C110      1.0  0.84317  0.20780  0.82698  1.0000
  C   C111      1.0  0.79243  0.63451  0.83561  1.0000
  C   C112      1.0  0.63614  0.84299  0.82926  1.0000
  C   C113      1.0  0.15780  0.79310  0.84082  1.0000
  C   C114      1.0  0.20841  0.36562  0.83715  1.0000
  C   C115      1.0  0.38203  0.18835  0.85287  1.0000
  C   C116      1.0  0.81069  0.19211  0.83957  1.0000
  C   C117      1.0  0.80763  0.61717  0.84033  1.0000
  C   C118      1.0  0.61898  0.81042  0.83862  1.0000
  C   C119      1.0  0.19030  0.80884  0.85115  1.0000
  C   C120      1.0  0.19297  0.38272  0.84381  1.0000
  C   C121      1.0  0.42818  0.08510  0.87543  1.0000
  C   C122      1.0  0.91335  0.34189  0.85948  1.0000
  C   C123      1.0  0.65846  0.57061  0.86625  1.0000
  C   C124      1.0  0.57390  0.91414  0.87630  1.0000
  C   C125      1.0  0.08711  0.65923  0.87945  1.0000
  C   C126      1.0  0.34196  0.42898  0.88917  1.0000
  C   C127      1.0  0.51473  0.99993  0.81327  1.0000
  C   C128      1.0  0.00062  0.51458  0.80164  1.0000
  C   C129      1.0  0.48631  0.48564  0.81235  1.0000
  C   C130      1.0  0.48716  0.99985  0.81274  1.0000
  C   C131      1.0  0.00077  0.48709  0.80289  1.0000
  C   C132      1.0  0.51383  0.51336  0.81051  1.0000
  N   N1        1.0  0.16557  0.07938  0.24623  1.0000
  N   N2        1.0  0.92224  0.08939  0.23308  1.0000
  N   N3        1.0  0.90979  0.83416  0.26121  1.0000
  N   N4        1.0  0.83228  0.91954  0.23962  1.0000
  N   N5        1.0  0.07862  0.91323  0.25480  1.0000
  N   N6        1.0  0.08761  0.16688  0.23195  1.0000
  N   N7        1.0  0.54206  0.90295  0.35612  1.0000
  N   N8        1.0  0.09841  0.64021  0.33418  1.0000
  N   N9        1.0  0.35924  0.45615  0.34938  1.0000
  N   N10       1.0  0.45549  0.09688  0.33542  1.0000
  N   N11       1.0  0.90090  0.35984  0.34238  1.0000
  N   N12       1.0  0.63943  0.54197  0.33458  1.0000
  N   N13       1.0  0.64030  0.09390  0.26383  1.0000
  N   N14       1.0  0.90484  0.54548  0.24819  1.0000
  N   N15       1.0  0.45471  0.35973  0.25905  1.0000
  N   N16       1.0  0.35928  0.90678  0.25804  1.0000
  N   N17       1.0  0.09260  0.45335  0.24997  1.0000
  N   N18       1.0  0.54585  0.64043  0.25363  1.0000
  N   N19       1.0  0.16700  0.07800  0.74698  1.0000
  N   N20       1.0  0.92318  0.08907  0.74037  1.0000
  N   N21       1.0  0.91336  0.83395  0.76187  1.0000
  N   N22       1.0  0.83470  0.92308  0.74822  1.0000
  N   N23       1.0  0.07776  0.91138  0.74806  1.0000
  N   N24       1.0  0.08882  0.16695  0.74356  1.0000
  N   N25       1.0  0.54447  0.90308  0.85631  1.0000
  N   N26       1.0  0.09806  0.64092  0.85459  1.0000
  N   N27       1.0  0.36043  0.45805  0.86071  1.0000
  N   N28       1.0  0.45794  0.09681  0.86251  1.0000
  N   N29       1.0  0.90256  0.36032  0.83469  1.0000
  N   N30       1.0  0.64014  0.54142  0.83911  1.0000
  N   N31       1.0  0.64104  0.09453  0.76292  1.0000
  N   N32       1.0  0.90595  0.54591  0.74626  1.0000
  N   N33       1.0  0.45437  0.35894  0.75837  1.0000
  N   N34       1.0  0.36033  0.90565  0.75786  1.0000
  N   N35       1.0  0.09332  0.45300  0.74773  1.0000
  N   N36       1.0  0.54685  0.63995  0.74954  1.0000
  C  Sn1       1.0  0.95907  0.88693  0.13237  1.0000
  C   C133      1.0  0.93860  0.86947  0.23658  1.0000
  C  Sn2       1.0  0.92813  0.88356  0.32894  1.0000
  C  Sn3       1.0  0.93831  0.91577  0.31685  1.0000
  C   C134      1.0  0.95876  0.93321  0.21268  1.0000
  C  Sn4       1.0  0.96925  0.91914  0.12028  1.0000
  O  Te1       1.0  0.96924  0.87235  0.04117  1.0000
  O  Te2       1.0  0.90769  0.86563  0.43230  1.0000
  O  Te3       1.0  0.92812  0.93034  0.40817  1.0000
  O  Te4       1.0  0.98968  0.93705  0.01696  1.0000
  Mg  Mg1       1.0  0.90036  0.89607  0.53165  1.0000
  Mg  Mg2       1.0  0.99608  0.90637  0.91752  1.0000
  C  Sn5       1.0  0.08877  0.03295  0.34060  1.0000
  C   C135      1.0  0.07017  0.03726  0.24738  1.0000
  C  Sn6       1.0  0.08319  0.05435  0.12896  1.0000
  C  Sn7       1.0  0.11549  0.06739  0.10313  1.0000
  C   C136      1.0  0.13407  0.06307  0.19631  1.0000
  C  Sn8       1.0  0.12106  0.04599  0.31477  1.0000
  O  Te5       1.0  0.07526  0.01578  0.45831  1.0000
  O  Te6       1.0  0.06412  0.05836  0.03729  1.0000
  O  Te7       1.0  0.12808  0.08431  0.98530  1.0000
  O  Te8       1.0  0.14011  0.04197  0.40639  1.0000
  Mg  Mg3       1.0  0.09247  0.08333  0.89132  1.0000
  Mg  Mg4       1.0  0.11087  0.01674  0.55236  1.0000
  C  Sn9       1.0  0.92483  0.03762  0.12626  1.0000
  C   C137      1.0  0.92937  0.06109  0.21742  1.0000
  C  Sn10      1.0  0.95567  0.07483  0.30009  1.0000
  C  Sn11      1.0  0.97790  0.06493  0.29141  1.0000
  C   C138      1.0  0.97336  0.04148  0.20028  1.0000
  C  Sn12      1.0  0.94707  0.02771  0.11758  1.0000
  O  Te9       1.0  0.89837  0.02421  0.04459  1.0000
  O  Te10      1.0  0.95969  0.09825  0.39049  1.0000
  O  Te11      1.0  0.00438  0.07836  0.37319  1.0000
  O  Te12      1.0  0.94304  0.00432  0.02722  1.0000
  Mg  Mg5       1.0  0.99951  0.10941  0.48036  1.0000
  Mg  Mg6       1.0  0.40332  0.99289  0.93725  1.0000
  C  Sn13      1.0  0.07817  0.10921  0.29226  1.0000
  C   C139      1.0  0.07545  0.13035  0.20811  1.0000
  C  Sn14      1.0  0.04941  0.12038  0.12534  1.0000
  C  Sn15      1.0  0.02558  0.08861  0.12677  1.0000
  C   C140      1.0  0.02830  0.06750  0.21091  1.0000
  C  Sn16      1.0  0.05434  0.07745  0.29370  1.0000
  O  Te13      1.0  0.10441  0.11970  0.37417  1.0000
  O  Te14      1.0  0.04722  0.14194  0.04203  1.0000
  O  Te15      1.0  0.99933  0.07814  0.04477  1.0000
  O  Te16      1.0  0.05653  0.05591  0.37699  1.0000
  Mg  Mg7       1.0  0.00606  0.11611  0.94880  1.0000
  Mg  Mg8       1.0  0.09676  0.08145  0.47030  1.0000
  C  Sn17      1.0  0.90851  0.96885  0.33135  1.0000
  C   C141      1.0  0.92778  0.96332  0.24636  1.0000
  C  Sn18      1.0  0.91548  0.94399  0.13349  1.0000
  C  Sn19      1.0  0.88325  0.92990  0.10492  1.0000
  C   C142      1.0  0.86399  0.93543  0.18987  1.0000
  C  Sn20      1.0  0.87627  0.95476  0.30278  1.0000
  O  Te17      1.0  0.92131  0.98826  0.44362  1.0000
  O  Te18      1.0  0.93522  0.93880  0.05003  1.0000
  O  Te19      1.0  0.86954  0.91021  0.99254  1.0000
  O  Te20      1.0  0.85656  0.95995  0.38619  1.0000
  Mg  Mg9       1.0  0.90588  0.91029  0.90912  1.0000
  Mg  Mg10      1.0  0.88495  0.98820  0.52708  1.0000
  C  Sn21      1.0  0.02795  0.92008  0.29607  1.0000
  C   C143      1.0  0.05356  0.92400  0.22078  1.0000
  C  Sn22      1.0  0.07066  0.95065  0.14159  1.0000
  C  Sn23      1.0  0.06200  0.97389  0.13763  1.0000
  C   C144      1.0  0.03641  0.96997  0.21291  1.0000
  C  Sn24      1.0  0.01929  0.94331  0.29212  1.0000
  O  Te21      1.0  0.01119  0.89324  0.37454  1.0000
  O  Te22      1.0  0.09616  0.95404  0.06715  1.0000
  O  Te23      1.0  0.57779  0.00074  0.05908  1.0000
  O  Te24      1.0  0.99381  0.93992  0.36654  1.0000
  Mg  Mg11      1.0  0.11078  0.99446  0.97557  1.0000
  Mg  Mg12      1.0  0.97827  0.89926  0.45821  1.0000
  C  Sn25      1.0  0.43267  0.27894  0.41892  1.0000
  C   C145      1.0  0.43330  0.30264  0.34011  1.0000
  C  Sn26      1.0  0.40829  0.29643  0.25598  1.0000
  C  Sn27      1.0  0.38210  0.26590  0.25057  1.0000
  C   C146      1.0  0.38148  0.24222  0.32936  1.0000
  C  Sn28      1.0  0.40648  0.24841  0.41350  1.0000
  O  Te25      1.0  0.45792  0.28569  0.50230  1.0000
  O  Te26      1.0  0.40946  0.32050  0.17810  1.0000
  O  Te27      1.0  0.35684  0.25917  0.16709  1.0000
  O  Te28      1.0  0.40531  0.22437  0.49137  1.0000
  Mg  Mg13      1.0  0.36933  0.29975  0.08025  1.0000
  Mg  Mg14      1.0  0.44542  0.24509  0.58929  1.0000
  C  Sn29      1.0  0.73031  0.12366  0.20771  1.0000
  C   C147      1.0  0.75385  0.14607  0.28925  1.0000
  C  Sn30      1.0  0.74671  0.15362  0.41551  1.0000
  C  Sn31      1.0  0.71538  0.13845  0.46128  1.0000
  C   C148      1.0  0.69186  0.11606  0.37978  1.0000
  C  Sn32      1.0  0.69898  0.10849  0.25348  1.0000
  O  Te29      1.0  0.73798  0.11647  0.08184  1.0000
  O  Te30      1.0  0.77065  0.17611  0.49521  1.0000
  O  Te31      1.0  0.70772  0.14566  0.58726  1.0000
  O  Te32      1.0  0.67506  0.08601  0.17382  1.0000
  Mg  Mg15      1.0  0.74849  0.17787  0.65903  1.0000
  Mg  Mg16      1.0  0.69719  0.08422  0.01002  1.0000
  C  Sn33      1.0  0.85272  0.59031  0.45891  1.0000
  C   C149      1.0  0.85902  0.61317  0.36151  1.0000
  C  Sn34      1.0  0.87412  0.61390  0.24083  1.0000
  C  Sn35      1.0  0.88311  0.59130  0.21696  1.0000
  C   C150      1.0  0.87681  0.56845  0.31431  1.0000
  C  Sn36      1.0  0.86171  0.56771  0.43504  1.0000
  O  Te33      1.0  0.83759  0.59002  0.57883  1.0000
  O  Te34      1.0  0.88017  0.63698  0.14499  1.0000
  O  Te35      1.0  0.89825  0.59160  0.09693  1.0000
  O  Te36      1.0  0.85565  0.54464  0.53083  1.0000
  Mg  Mg17      1.0  0.90042  0.62740  0.99733  1.0000
  Mg  Mg18      1.0  0.83448  0.55392  0.67849  1.0000
  C  Sn37      1.0  0.58907  0.73803  0.45865  1.0000
  C   C151      1.0  0.61200  0.75469  0.36130  1.0000
  C  Sn38      1.0  0.61323  0.74016  0.24211  1.0000
  C  Sn39      1.0  0.59106  0.70832  0.21969  1.0000
  C   C152      1.0  0.56815  0.69168  0.31698  1.0000
  C  Sn40      1.0  0.56691  0.70619  0.43623  1.0000
  O  Te37      1.0  0.58829  0.75303  0.57706  1.0000
  O  Te38      1.0  0.63637  0.75730  0.14629  1.0000
  O  Te39      1.0  0.59186  0.69333  0.10115  1.0000
  O  Te40      1.0  0.54378  0.68907  0.53200  1.0000
  Mg  Mg19      1.0  0.62781  0.72653  0.00096  1.0000
  Mg  Mg20      1.0  0.55231  0.71982  0.67732  1.0000
  C  Sn41      1.0  0.27856  0.84481  0.40358  1.0000
  C   C153      1.0  0.30233  0.86996  0.33303  1.0000
  C  Sn42      1.0  0.29601  0.89022  0.25976  1.0000
  C  Sn43      1.0  0.26529  0.88524  0.25701  1.0000
  C   C154      1.0  0.24154  0.86011  0.32754  1.0000
  C  Sn44      1.0  0.24784  0.83984  0.40083  1.0000
  O  Te41      1.0  0.28541  0.82486  0.47617  1.0000
  O  Te42      1.0  0.32015  0.91520  0.19000  1.0000
  O  Te43      1.0  0.25845  0.90522  0.18434  1.0000
  O  Te44      1.0  0.22371  0.81488  0.47058  1.0000
  Mg  Mg21      1.0  0.29920  0.93596  0.10567  1.0000
  Mg  Mg22      1.0  0.24464  0.79411  0.55499  1.0000
  C  Sn45      1.0  0.10363  0.39295  0.24741  1.0000
  C   C155      1.0  0.11137  0.41717  0.33938  1.0000
  C  Sn46      1.0  0.13871  0.42920  0.41490  1.0000
  C  Sn47      1.0  0.15876  0.41678  0.39810  1.0000
  C   C156      1.0  0.15103  0.39259  0.30616  1.0000
  C  Sn48      1.0  0.12368  0.38054  0.23060  1.0000
  O  Te45      1.0  0.07618  0.38129  0.17297  1.0000
  O  Te46      1.0  0.14595  0.45340  0.50626  1.0000
  O  Te47      1.0  0.18624  0.42847  0.47264  1.0000
  O  Te48      1.0  0.11645  0.35635  0.13928  1.0000
  Mg  Mg23      1.0  0.18598  0.46149  0.58438  1.0000
  Mg  Mg24      1.0  0.07643  0.34826  0.06106  1.0000
  C  Sn49      1.0  0.25645  0.10902  0.29060  1.0000
  C   C157      1.0  0.28020  0.13511  0.22472  1.0000
  C  Sn50      1.0  0.27320  0.15382  0.14361  1.0000
  C  Sn51      1.0  0.24181  0.14631  0.12808  1.0000
  C   C158      1.0  0.21808  0.12024  0.19395  1.0000
  C  Sn52      1.0  0.22506  0.10151  0.27507  1.0000
  O  Te49      1.0  0.26398  0.09065  0.37119  1.0000
  O  Te50      1.0  0.29734  0.17978  0.07873  1.0000
  O  Te51      1.0  0.23429  0.16471  0.04741  1.0000
  O  Te52      1.0  0.20094  0.07557  0.33994  1.0000
  Mg  Mg25      1.0  0.27439  0.19739  0.97978  1.0000
  Mg  Mg26      1.0  0.22294  0.05770  0.43897  1.0000
  C  Sn53      1.0  0.88877  0.12678  0.32166  1.0000
  C   C159      1.0  0.88119  0.10342  0.22535  1.0000
  C  Sn54      1.0  0.86107  0.09948  0.11905  1.0000
  C  Sn55      1.0  0.84827  0.11932  0.10875  1.0000
  C   C160      1.0  0.85585  0.14267  0.20500  1.0000
  C  Sn56      1.0  0.87596  0.14663  0.31136  1.0000
  O  Te53      1.0  0.90893  0.13030  0.42707  1.0000
  O  Te54      1.0  0.85384  0.07595  0.02402  1.0000
  O  Te55      1.0  0.82809  0.11578  0.00322  1.0000
  O  Te56      1.0  0.88320  0.17014  0.40633  1.0000
  Mg  Mg27      1.0  0.82436  0.08012  0.89875  1.0000
  Mg  Mg28      1.0  0.91177  0.16574  0.53159  1.0000
  C  Sn57      1.0  0.89772  0.73596  0.18324  1.0000
  C   C161      1.0  0.87104  0.71890  0.26251  1.0000
  C  Sn58      1.0  0.85512  0.73313  0.31542  1.0000
  C  Sn59      1.0  0.86610  0.76508  0.28848  1.0000
  C   C162      1.0  0.89276  0.78212  0.20923  1.0000
  C  Sn60      1.0  0.90869  0.76791  0.15629  1.0000
  O  Te57      1.0  0.91325  0.72126  0.13137  1.0000
  O  Te58      1.0  0.82851  0.71559  0.39444  1.0000
  O  Te59      1.0  0.85053  0.77978  0.34042  1.0000
  O  Te60      1.0  0.93528  0.78543  0.07730  1.0000
  Mg  Mg29      1.0  0.81537  0.74607  0.44234  1.0000
  Mg  Mg30      1.0  0.94843  0.75497  0.02929  1.0000
  C  Sn61      1.0  0.74996  0.85843  0.08008  1.0000
  C   C163      1.0  0.77406  0.88397  0.14665  1.0000
  C  Sn62      1.0  0.76875  0.89365  0.27177  1.0000
  C  Sn63      1.0  0.73871  0.87745  0.33164  1.0000
  C   C164      1.0  0.71463  0.85193  0.26509  1.0000
  C  Sn64      1.0  0.71992  0.84224  0.13995  1.0000
  O  Te61      1.0  0.75488  0.84890  0.95508  1.0000
  O  Te62      1.0  0.79321  0.91925  0.33636  1.0000
  O  Te63      1.0  0.73288  0.88675  0.45674  1.0000
  O  Te64      1.0  0.69548  0.81665  0.07538  1.0000
  Mg  Mg31      1.0  0.77371  0.92296  0.50521  1.0000
  Mg  Mg32      1.0  0.71404  0.81265  0.90657  1.0000
  C  Sn65      1.0  0.13725  0.88948  0.08741  1.0000
  C   C165      1.0  0.11288  0.88895  0.16084  1.0000
  C  Sn66      1.0  0.10560  0.87610  0.29078  1.0000
  C  Sn67      1.0  0.12305  0.86355  0.34858  1.0000
  C   C166      1.0  0.14741  0.86409  0.27518  1.0000
  C  Sn68      1.0  0.15471  0.87692  0.14521  1.0000
  O  Te65      1.0  0.14320  0.90217  0.95767  1.0000
  O  Te66      1.0  0.08112  0.87583  0.36221  1.0000
  O  Te67      1.0  0.11616  0.85058  0.47842  1.0000
  O  Te68      1.0  0.17917  0.87721  0.07381  1.0000
  Mg  Mg33      1.0  0.08070  0.85563  0.53560  1.0000
  Mg  Mg34      1.0  0.17870  0.89715  0.90045  1.0000
  C  Sn69      1.0  0.10631  0.24886  0.07498  1.0000
  C   C167      1.0  0.10896  0.22513  0.13841  1.0000
  C  Sn70      1.0  0.12549  0.23092  0.25923  1.0000
  C  Sn71      1.0  0.13964  0.26106  0.31793  1.0000
  C   C168      1.0  0.13698  0.28477  0.25453  1.0000
  C  Sn72      1.0  0.12046  0.27900  0.13369  1.0000
  O  Te69      1.0  0.08876  0.24228  0.95426  1.0000
  O  Te70      1.0  0.12783  0.20683  0.32074  1.0000
  O  Te71      1.0  0.15628  0.26736  0.43875  1.0000
  O  Te72      1.0  0.11811  0.30307  0.07220  1.0000
  Mg  Mg35      1.0  0.15292  0.22692  0.48419  1.0000
  Mg  Mg36      1.0  0.09209  0.28274  0.90879  1.0000
  C  Sn73      1.0  0.37114  0.08932  0.33909  1.0000
  C   C169      1.0  0.40209  0.09892  0.30680  1.0000
  C  Sn74      1.0  0.42389  0.13057  0.29194  1.0000
  C  Sn75      1.0  0.41456  0.15309  0.30979  1.0000
  C   C170      1.0  0.38363  0.14349  0.34208  1.0000
  C  Sn76      1.0  0.36181  0.11184  0.35694  1.0000
  O  Te73      1.0  0.34974  0.05756  0.35347  1.0000
  O  Te74      1.0  0.45469  0.13960  0.25959  1.0000
  O  Te75      1.0  0.43599  0.18488  0.29538  1.0000
  O  Te76      1.0  0.33102  0.10281  0.38929  1.0000
  Mg  Mg37      1.0  0.47525  0.18561  0.25078  1.0000
  Mg  Mg38      1.0  0.31046  0.05680  0.39819  1.0000
  C  Sn77      1.0  0.90927  0.28355  0.34822  1.0000
  C   C171      1.0  0.89958  0.30475  0.31524  1.0000
  C  Sn78      1.0  0.86808  0.29446  0.29451  1.0000
  C  Sn79      1.0  0.84578  0.26231  0.30707  1.0000
  C   C172      1.0  0.85547  0.24113  0.34005  1.0000
  C  Sn80      1.0  0.88697  0.25139  0.36078  1.0000
  O  Te77      1.0  0.94088  0.29435  0.36851  1.0000
  O  Te78      1.0  0.85896  0.31610  0.26159  1.0000
  O  Te79      1.0  0.81415  0.25152  0.28674  1.0000
  O  Te80      1.0  0.89610  0.22977  0.39370  1.0000
  Mg  Mg39      1.0  0.81321  0.29001  0.24375  1.0000
  Mg  Mg40      1.0  0.94183  0.25584  0.41163  1.0000
  C  Sn81      1.0  0.73220  0.58128  0.26127  1.0000
  C   C173      1.0  0.75335  0.61311  0.27598  1.0000
  C  Sn82      1.0  0.74386  0.63280  0.33294  1.0000
  C  Sn83      1.0  0.71257  0.62042  0.37618  1.0000
  C   C174      1.0  0.69144  0.58861  0.36148  1.0000
  C  Sn84      1.0  0.70091  0.56890  0.30451  1.0000
  O  Te81      1.0  0.74220  0.56203  0.20406  1.0000
  O  Te82      1.0  0.76543  0.66454  0.34656  1.0000
  O  Te83      1.0  0.70258  0.63970  0.43341  1.0000
  O  Te84      1.0  0.67936  0.53718  0.29090  1.0000
  Mg  Mg41      1.0  0.74063  0.68133  0.43063  1.0000
  Mg  Mg42      1.0  0.70414  0.52037  0.20692  1.0000
  C  Sn85      1.0  0.57012  0.85624  0.34290  1.0000
  C   C175      1.0  0.58234  0.88710  0.38509  1.0000
  C  Sn86      1.0  0.61451  0.90731  0.38841  1.0000
  C  Sn87      1.0  0.63489  0.89646  0.34865  1.0000
  C   C176      1.0  0.62267  0.86562  0.30647  1.0000
  C  Sn88      1.0  0.59051  0.84539  0.30315  1.0000
  O  Te85      1.0  0.53789  0.83644  0.34038  1.0000
  O  Te86      1.0  0.62617  0.93806  0.43100  1.0000
  O  Te87      1.0  0.66715  0.91629  0.35121  1.0000
  O  Te88      1.0  0.57884  0.81466  0.26056  1.0000
  Mg  Mg43      1.0  0.67181  0.95613  0.41688  1.0000
  Mg  Mg44      1.0  0.53321  0.79658  0.27458  1.0000
  C  Sn89      1.0  0.09105  0.71680  0.37602  1.0000
  C   C177      1.0  0.09877  0.69537  0.32329  1.0000
  C  Sn90      1.0  0.12896  0.70532  0.27734  1.0000
  C  Sn91      1.0  0.15194  0.73735  0.28431  1.0000
  C   C178      1.0  0.14422  0.75875  0.33704  1.0000
  C  Sn92      1.0  0.11403  0.74883  0.38299  1.0000
  O  Te89      1.0  0.06072  0.70633  0.42137  1.0000
  O  Te90      1.0  0.13612  0.68346  0.22499  1.0000
  O  Te91      1.0  0.18229  0.74780  0.23890  1.0000
  O  Te92      1.0  0.10687  0.77066  0.43533  1.0000
  Mg  Mg45      1.0  0.18070  0.70912  0.17603  1.0000
  Mg  Mg46      1.0  0.06231  0.74503  0.48438  1.0000
  C  Sn93      1.0  0.28159  0.37237  0.35794  1.0000
  C   C179      1.0  0.30366  0.40308  0.32461  1.0000
  C  Sn94      1.0  0.29449  0.42511  0.30157  1.0000
  C  Sn95      1.0  0.26261  0.41625  0.31215  1.0000
  C   C180      1.0  0.24057  0.38555  0.34549  1.0000
  C  Sn96      1.0  0.24971  0.36351  0.36852  1.0000
  O  Te93      1.0  0.29128  0.35074  0.38054  1.0000
  O  Te94      1.0  0.31698  0.45567  0.26834  1.0000
  O  Te95      1.0  0.25294  0.43790  0.28951  1.0000
  O  Te96      1.0  0.22724  0.33296  0.40176  1.0000
  Mg  Mg47      1.0  0.29228  0.47668  0.24700  1.0000
  Mg  Mg48      1.0  0.25191  0.31193  0.42318  1.0000
  C  Sn97      1.0  0.50771  0.94673  0.44740  1.0000
  C   C181      1.0  0.51867  0.97107  0.35351  1.0000
  C  Sn98      1.0  0.53439  0.97046  0.23700  1.0000
  C  Sn99      1.0  0.53923  0.94498  0.21379  1.0000
  C   C182      1.0  0.52826  0.92065  0.30762  1.0000
  C  Sn100     1.0  0.51255  0.92124  0.42418  1.0000
  O  Te97      1.0  0.49206  0.94782  0.56317  1.0000
  O  Te98      1.0  0.54514  0.99507  0.14463  1.0000
  O  Te99      1.0  0.55489  0.94390  0.09790  1.0000
  O  Te100     1.0  0.50180  0.89665  0.51650  1.0000
  Mg  Mg49      1.0  0.56513  0.98294  0.00199  1.0000
  Mg  Mg50      1.0  0.48179  0.90874  0.65914  1.0000
  C  Sn101     1.0  0.03914  0.57316  0.18098  1.0000
  C   C183      1.0  0.03427  0.54814  0.26298  1.0000
  C  Sn102     1.0  0.05001  0.55346  0.38574  1.0000
  C  Sn103     1.0  0.07104  0.58442  0.42746  1.0000
  C   C184      1.0  0.07590  0.60941  0.34550  1.0000
  C  Sn104     1.0  0.06017  0.60412  0.22271  1.0000
  O  Te101     1.0  0.02316  0.56730  0.05867  1.0000
  O  Te102     1.0  0.04477  0.52807  0.46596  1.0000
  O  Te103     1.0  0.08703  0.59026  0.54988  1.0000
  O  Te104     1.0  0.06541  0.62948  0.14252  1.0000
  Mg  Mg51      1.0  0.07205  0.54799  0.62399  1.0000
  Mg  Mg52      1.0  0.03721  0.60933  0.98451  1.0000
  C  Sn105     1.0  0.40496  0.44492  0.25929  1.0000
  C   C185      1.0  0.39190  0.45855  0.34034  1.0000
  C  Sn106     1.0  0.41088  0.48722  0.40294  1.0000
  C  Sn107     1.0  0.44361  0.50261  0.38407  1.0000
  C   C186      1.0  0.45665  0.48899  0.30305  1.0000
  C  Sn108     1.0  0.43768  0.46031  0.24043  1.0000
  O  Te105     1.0  0.38553  0.41624  0.19769  1.0000
  O  Te106     1.0  0.39729  0.50038  0.48354  1.0000
  O  Te107     1.0  0.46303  0.53132  0.44576  1.0000
  O  Te108     1.0  0.45126  0.44716  0.15985  1.0000
  Mg  Mg53      1.0  0.43351  0.53983  0.54606  1.0000
  Mg  Mg54      1.0  0.41506  0.40773  0.09723  1.0000
  C  Sn109     1.0  0.49175  0.05550  0.43302  1.0000
  C   C187      1.0  0.47984  0.02950  0.34811  1.0000
  C  Sn110     1.0  0.46242  0.02771  0.23427  1.0000
  C  Sn111     1.0  0.45681  0.05243  0.20463  1.0000
  C   C188      1.0  0.46872  0.07842  0.28949  1.0000
  C  Sn112     1.0  0.48614  0.08023  0.40337  1.0000
  O  Te109     1.0  0.50910  0.05680  0.54627  1.0000
  O  Te110     1.0  0.45075  0.00147  0.15092  1.0000
  O  Te111     1.0  0.43944  0.05112  0.09127  1.0000
  O  Te112     1.0  0.49781  0.10645  0.48668  1.0000
  Mg  Mg55      1.0  0.42848  0.01054  0.00843  1.0000
  Mg  Mg56      1.0  0.52010  0.09742  0.62916  1.0000
  C  Sn113     1.0  0.94543  0.43762  0.43807  1.0000
  C   C189      1.0  0.96974  0.45120  0.34393  1.0000
  C  Sn114     1.0  0.96880  0.43530  0.22561  1.0000
  C  Sn115     1.0  0.94300  0.40522  0.20081  1.0000
  C   C190      1.0  0.91870  0.39165  0.29490  1.0000
  C  Sn116     1.0  0.91963  0.40753  0.41327  1.0000
  O  Te113     1.0  0.94686  0.45393  0.55567  1.0000
  O  Te114     1.0  0.99339  0.44935  0.13302  1.0000
  O  Te115     1.0  0.94158  0.38890  0.08309  1.0000
  O  Te116     1.0  0.89506  0.39349  0.50581  1.0000
  Mg  Mg57      1.0  0.97981  0.41757  0.98761  1.0000
  Mg  Mg58      1.0  0.90768  0.42500  0.65121  1.0000
  C  Sn117     1.0  0.57655  0.49900  0.38818  1.0000
  C   C191      1.0  0.60135  0.52023  0.30757  1.0000
  C  Sn118     1.0  0.59845  0.54197  0.22855  1.0000
  C  Sn119     1.0  0.57017  0.54252  0.23020  1.0000
  C   C192      1.0  0.54538  0.52130  0.31079  1.0000
  C  Sn120     1.0  0.54826  0.49955  0.38983  1.0000
  O  Te117     1.0  0.57997  0.47747  0.46637  1.0000
  O  Te118     1.0  0.62357  0.56296  0.14874  1.0000
  O  Te119     1.0  0.56676  0.56407  0.15192  1.0000
  O  Te120     1.0  0.52317  0.47857  0.46962  1.0000
  Mg  Mg59      1.0  0.60759  0.58788  0.05986  1.0000
  Mg  Mg60      1.0  0.53912  0.45365  0.55858  1.0000
  C  Sn121     1.0  0.57293  0.03817  0.43220  1.0000
  C   C193      1.0  0.54802  0.03427  0.35266  1.0000
  C  Sn122     1.0  0.55346  0.05008  0.22965  1.0000
  C  Sn123     1.0  0.58444  0.07019  0.18515  1.0000
  C   C194      1.0  0.60934  0.07407  0.26465  1.0000
  C  Sn124     1.0  0.60392  0.05828  0.38770  1.0000
  O  Te121     1.0  0.56695  0.02213  0.55482  1.0000
  O  Te122     1.0  0.52817  0.04581  0.15191  1.0000
  O  Te123     1.0  0.59041  0.08623  0.06242  1.0000
  O  Te124     1.0  0.62918  0.06253  0.46540  1.0000
  Mg  Mg61      1.0  0.54732  0.07250  0.99235  1.0000
  Mg  Mg62      1.0  0.60914  0.03558  0.62494  1.0000
  C  Sn125     1.0  0.96219  0.53687  0.41408  1.0000
  C   C195      1.0  0.96590  0.51512  0.33835  1.0000
  C  Sn126     1.0  0.94952  0.50330  0.21781  1.0000
  C  Sn127     1.0  0.92902  0.51343  0.17195  1.0000
  C   C196      1.0  0.92533  0.53517  0.24764  1.0000
  C  Sn128     1.0  0.94169  0.54700  0.36822  1.0000
  O  Te125     1.0  0.97880  0.54837  0.53428  1.0000
  O  Te126     1.0  0.95360  0.48157  0.14387  1.0000
  O  Te127     1.0  0.91241  0.50190  0.05165  1.0000
  O  Te128     1.0  0.93762  0.56872  0.44213  1.0000
  Mg  Mg63      1.0  0.92491  0.47245  0.98650  1.0000
  Mg  Mg64      1.0  0.96539  0.57761  0.59947  1.0000
  C  Sn129     1.0  0.44791  0.40570  0.37256  1.0000
  C   C197      1.0  0.46022  0.39263  0.28396  1.0000
  C  Sn130     1.0  0.48771  0.41166  0.21266  1.0000
  C  Sn131     1.0  0.50323  0.44445  0.23035  1.0000
  C   C198      1.0  0.49092  0.45751  0.31892  1.0000
  C  Sn132     1.0  0.46343  0.43849  0.39025  1.0000
  O  Te129     1.0  0.42040  0.38623  0.44280  1.0000
  O  Te130     1.0  0.49956  0.39805  0.12461  1.0000
  O  Te131     1.0  0.53075  0.46392  0.16001  1.0000
  O  Te132     1.0  0.45158  0.45209  0.47826  1.0000
  Mg  Mg65      1.0  0.53772  0.43436  0.05169  1.0000
  Mg  Mg66      1.0  0.41344  0.41580  0.55129  1.0000
  C  Sn133     1.0  0.42196  0.92358  0.21906  1.0000
  C   C199      1.0  0.39659  0.92041  0.29392  1.0000
  C  Sn134     1.0  0.39971  0.94469  0.37645  1.0000
  C  Sn135     1.0  0.42879  0.97274  0.38427  1.0000
  C   C200      1.0  0.45413  0.97591  0.30942  1.0000
  C  Sn136     1.0  0.45104  0.95163  0.22687  1.0000
  O  Te133     1.0  0.41831  0.89900  0.13720  1.0000
  O  Te134     1.0  0.37402  0.94097  0.45038  1.0000
  O  Te135     1.0  0.43242  0.99733  0.46621  1.0000
  O  Te136     1.0  0.47671  0.95534  0.15296  1.0000
  Mg  Mg67      1.0  0.39060  0.98112  0.54749  1.0000
  Mg  Mg68      1.0  0.46015  0.91522  0.05577  1.0000
  C  Sn137     1.0  0.07644  0.49990  0.22415  1.0000
  C   C201      1.0  0.07807  0.47589  0.29049  1.0000
  C  Sn138     1.0  0.05235  0.45303  0.36153  1.0000
  C  Sn139     1.0  0.02439  0.45418  0.36631  1.0000
  C   C202      1.0  0.02277  0.47817  0.29998  1.0000
  C  Sn140     1.0  0.04848  0.50105  0.22893  1.0000
  O  Te137     1.0  0.10244  0.52250  0.15373  1.0000
  O  Te138     1.0  0.05455  0.42926  0.42709  1.0000
  O  Te139     1.0  0.99838  0.43155  0.43681  1.0000
  O  Te140     1.0  0.04629  0.52480  0.16338  1.0000
  Mg  Mg69      1.0  0.01281  0.40383  0.50979  1.0000
  Mg  Mg70      1.0  0.08801  0.55023  0.08059  1.0000
  C  Sn141     1.0  0.50005  0.57750  0.22233  1.0000
  C   C203      1.0  0.52353  0.60320  0.29065  1.0000
  C  Sn142     1.0  0.54592  0.60039  0.36454  1.0000
  C  Sn143     1.0  0.54484  0.57128  0.37020  1.0000
  C   C204      1.0  0.52138  0.54560  0.30188  1.0000
  C  Sn144     1.0  0.49897  0.54839  0.22798  1.0000
  O  Te141     1.0  0.47791  0.58084  0.14907  1.0000
  O  Te142     1.0  0.56916  0.62641  0.43205  1.0000
  O  Te143     1.0  0.56701  0.56795  0.44353  1.0000
  O  Te144     1.0  0.47575  0.52239  0.16049  1.0000
  Mg  Mg71      1.0  0.59410  0.61017  0.51838  1.0000
  Mg  Mg72      1.0  0.45081  0.53861  0.07407  1.0000
  C  Sn145     1.0  0.94114  0.91130  0.83825  1.0000
  C   C205      1.0  0.96570  0.92957  0.74997  1.0000
  C  Sn146     1.0  0.97209  0.91597  0.63979  1.0000
  C  Sn147     1.0  0.95354  0.88343  0.61733  1.0000
  C   C206      1.0  0.92900  0.86518  0.70556  1.0000
  C  Sn148     1.0  0.92260  0.87876  0.81579  1.0000
  O  Te145     1.0  0.93518  0.92540  0.94774  1.0000
  O  Te146     1.0  0.99676  0.93471  0.55295  1.0000
  O  Te147     1.0  0.95953  0.86934  0.50773  1.0000
  O  Te148     1.0  0.89793  0.86004  0.90258  1.0000
  Mg  Mg73      1.0  0.99569  0.90468  0.41783  1.0000
  Mg  Mg74      1.0  0.89990  0.89031  0.03769  1.0000
  C  Sn149     1.0  0.08990  0.03458  0.84235  1.0000
  C   C207      1.0  0.07173  0.03772  0.74286  1.0000
  C  Sn150     1.0  0.08516  0.05274  0.62077  1.0000
  C  Sn151     1.0  0.11742  0.06485  0.59760  1.0000
  C   C208      1.0  0.13557  0.06170  0.69703  1.0000
  C  Sn152     1.0  0.12216  0.04669  0.81917  1.0000
  O  Te149     1.0  0.07598  0.01947  0.96364  1.0000
  O  Te150     1.0  0.06653  0.05561  0.52285  1.0000
  O  Te151     1.0  0.13133  0.07996  0.47618  1.0000
  O  Te152     1.0  0.14078  0.04381  0.91704  1.0000
  Mg  Mg75      1.0  0.09623  0.07808  0.37391  1.0000
  Mg  Mg76      1.0  0.11201  0.02160  0.06599  1.0000
  C  Sn153     1.0  0.92460  0.03626  0.63691  1.0000
  C   C209      1.0  0.93030  0.06063  0.72492  1.0000
  C  Sn154     1.0  0.95783  0.07546  0.79952  1.0000
  C  Sn155     1.0  0.98014  0.06576  0.78581  1.0000
  C   C210      1.0  0.97444  0.04141  0.69783  1.0000
  C  Sn156     1.0  0.94691  0.02655  0.62321  1.0000
  O  Te153     1.0  0.89692  0.02177  0.56333  1.0000
  O  Te154     1.0  0.96301  0.09976  0.88689  1.0000
  O  Te155     1.0  0.00784  0.08027  0.85949  1.0000
  O  Te156     1.0  0.94174  0.00227  0.53586  1.0000
  Mg  Mg77      1.0  0.00426  0.11225  0.96535  1.0000
  Mg  Mg78      1.0  0.40150  0.98978  0.45731  1.0000
  C  Sn157     1.0  0.08004  0.10912  0.79313  1.0000
  C   C211      1.0  0.07713  0.13077  0.71337  1.0000
  C  Sn158     1.0  0.05119  0.12122  0.63042  1.0000
  C  Sn159     1.0  0.02764  0.08935  0.62719  1.0000
  C   C212      1.0  0.03055  0.06772  0.70693  1.0000
  C  Sn160     1.0  0.05649  0.07726  0.78990  1.0000
  O  Te157     1.0  0.10618  0.11920  0.87531  1.0000
  O  Te158     1.0  0.04880  0.14329  0.55155  1.0000
  O  Te159     1.0  0.00149  0.07929  0.54492  1.0000
  O  Te160     1.0  0.05888  0.05520  0.86875  1.0000
  Mg  Mg79      1.0  0.00879  0.11815  0.45602  1.0000
  Mg  Mg80      1.0  0.09887  0.08031  0.96436  1.0000
  C  Sn161     1.0  0.88822  0.92745  0.62205  1.0000
  C   C213      1.0  0.87020  0.93010  0.72452  1.0000
  C  Sn162     1.0  0.88360  0.95482  0.81625  1.0000
  C  Sn163     1.0  0.91567  0.97738  0.80530  1.0000
  C   C214      1.0  0.93367  0.97473  0.70287  1.0000
  C  Sn164     1.0  0.92029  0.95001  0.61110  1.0000
  O  Te161     1.0  0.87433  0.90255  0.53146  1.0000
  O  Te162     1.0  0.86511  0.95697  0.91786  1.0000
  O  Te163     1.0  0.42855  0.00230  0.89600  1.0000
  O  Te164     1.0  0.93876  0.94787  0.50953  1.0000
  Mg  Mg81      1.0  0.89562  0.99541  0.01700  1.0000
  Mg  Mg82      1.0  0.90919  0.90971  0.41029  1.0000
  C  Sn165     1.0  0.05305  0.95894  0.58532  1.0000
  C   C215      1.0  0.03147  0.95929  0.67550  1.0000
  C  Sn166     1.0  0.02757  0.94642  0.80476  1.0000
  C  Sn167     1.0  0.04563  0.93294  0.84477  1.0000
  C   C216      1.0  0.06719  0.93261  0.75463  1.0000
  C  Sn168     1.0  0.07111  0.94547  0.62533  1.0000
  O  Te165     1.0  0.05657  0.97195  0.45660  1.0000
  O  Te166     1.0  0.00584  0.94702  0.89312  1.0000
  O  Te167     1.0  0.04209  0.91993  0.97361  1.0000
  O  Te168     1.0  0.09282  0.94487  0.53701  1.0000
  Mg  Mg83      1.0  0.01044  0.92665  0.05776  1.0000
  Mg  Mg84      1.0  0.08917  0.96551  0.37238  1.0000
  C  Sn169     1.0  0.41138  0.26183  0.96892  1.0000
  C   C217      1.0  0.38788  0.24484  0.87500  1.0000
  C  Sn170     1.0  0.38639  0.25874  0.75453  1.0000
  C  Sn171     1.0  0.40886  0.29029  0.72730  1.0000
  C   C218      1.0  0.43234  0.30726  0.82117  1.0000
  C  Sn172     1.0  0.43385  0.29338  0.94169  1.0000
  O  Te169     1.0  0.41335  0.24772  0.08869  1.0000
  O  Te170     1.0  0.36267  0.24129  0.66221  1.0000
  O  Te171     1.0  0.40779  0.30465  0.60741  1.0000
  O  Te172     1.0  0.45847  0.31108  0.03397  1.0000
  Mg  Mg85      1.0  0.37106  0.27121  0.51327  1.0000
  Mg  Mg86      1.0  0.45011  0.28118  0.18289  1.0000
  C  Sn173     1.0  0.72121  0.15410  0.92430  1.0000
  C   C219      1.0  0.69780  0.13079  0.84537  1.0000
  C  Sn174     1.0  0.70428  0.11186  0.76275  1.0000
  C  Sn175     1.0  0.73479  0.11629  0.75900  1.0000
  C   C220      1.0  0.75819  0.13958  0.83792  1.0000
  C  Sn176     1.0  0.75173  0.15853  0.92055  1.0000
  O  Te173     1.0  0.71513  0.17302  0.00616  1.0000
  O  Te174     1.0  0.68048  0.08872  0.68471  1.0000
  O  Te175     1.0  0.74178  0.09761  0.67705  1.0000
  O  Te176     1.0  0.77550  0.18165  0.99857  1.0000
  Mg  Mg87      1.0  0.70152  0.06921  0.58932  1.0000
  Mg  Mg88      1.0  0.75541  0.20143  0.09405  1.0000
  C  Sn177     1.0  0.89420  0.60514  0.75196  1.0000
  C   C221      1.0  0.88659  0.58075  0.84284  1.0000
  C  Sn178     1.0  0.85983  0.56920  0.92310  1.0000
  C  Sn179     1.0  0.84027  0.58230  0.91224  1.0000
  C   C222      1.0  0.84788  0.60667  0.82139  1.0000
  C  Sn180     1.0  0.87464  0.61824  0.74110  1.0000
  O  Te177     1.0  0.92106  0.61631  0.67272  1.0000
  O  Te178     1.0  0.85363  0.54507  0.01327  1.0000
  O  Te179     1.0  0.81339  0.57110  0.99159  1.0000
  O  Te180     1.0  0.88176  0.64261  0.65097  1.0000
  Mg  Mg89      1.0  0.81449  0.53784  0.09942  1.0000
  Mg  Mg90      1.0  0.92088  0.64985  0.56471  1.0000
  C  Sn181     1.0  0.58977  0.73730  0.95699  1.0000
  C   C223      1.0  0.61334  0.75425  0.86254  1.0000
  C  Sn182     1.0  0.61507  0.74023  0.74267  1.0000
  C  Sn183     1.0  0.59277  0.70860  0.71661  1.0000
  C   C224      1.0  0.56922  0.69166  0.81100  1.0000
  C  Sn184     1.0  0.56747  0.70567  0.93092  1.0000
  O  Te181     1.0  0.58940  0.75206  0.07614  1.0000
  O  Te182     1.0  0.63885  0.75765  0.64980  1.0000
  O  Te183     1.0  0.59408  0.69411  0.59734  1.0000
  O  Te184     1.0  0.54462  0.68853  0.02374  1.0000
  Mg  Mg91      1.0  0.63081  0.72755  0.50207  1.0000
  Mg  Mg92      1.0  0.55263  0.71861  0.17147  1.0000
  C  Sn185     1.0  0.26322  0.85486  0.96971  1.0000
  C   C225      1.0  0.24641  0.86002  0.87005  1.0000
  C  Sn186     1.0  0.26037  0.87344  0.74626  1.0000
  C  Sn187     1.0  0.29179  0.88186  0.72151  1.0000
  C   C226      1.0  0.30858  0.87670  0.82112  1.0000
  C  Sn188     1.0  0.29464  0.86329  0.94496  1.0000
  O  Te185     1.0  0.24971  0.84168  0.09272  1.0000
  O  Te186     1.0  0.24310  0.87838  0.64821  1.0000
  O  Te187     1.0  0.30621  0.89532  0.59838  1.0000
  O  Te188     1.0  0.31281  0.85861  0.04297  1.0000
  Mg  Mg93      1.0  0.27303  0.89737  0.49662  1.0000
  Mg  Mg94      1.0  0.28290  0.83960  0.19455  1.0000
  C  Sn189     1.0  0.14821  0.41137  0.95876  1.0000
  C   C227      1.0  0.14199  0.38790  0.86469  1.0000
  C  Sn190     1.0  0.12675  0.38624  0.74378  1.0000
  C  Sn191     1.0  0.11754  0.40851  0.71626  1.0000
  C   C228      1.0  0.12376  0.43197  0.81028  1.0000
  C  Sn192     1.0  0.13900  0.43364  0.93124  1.0000
  O  Te189     1.0  0.16440  0.41284  0.07897  1.0000
  O  Te190     1.0  0.12078  0.36256  0.65132  1.0000
  O  Te191     1.0  0.10226  0.40728  0.59593  1.0000
  O  Te192     1.0  0.14590  0.45757  0.02365  1.0000
  Mg  Mg95      1.0  0.09936  0.37067  0.50176  1.0000
  Mg  Mg96      1.0  0.16733  0.44948  0.17320  1.0000
  C  Sn193     1.0  0.25762  0.10675  0.79621  1.0000
  C   C229      1.0  0.28181  0.13373  0.73754  1.0000
  C  Sn194     1.0  0.27539  0.15370  0.66254  1.0000
  C  Sn195     1.0  0.24414  0.14656  0.64591  1.0000
  C   C230      1.0  0.21997  0.11960  0.70458  1.0000
  C  Sn196     1.0  0.22636  0.09961  0.77958  1.0000
  O  Te193     1.0  0.26457  0.08712  0.87077  1.0000
  O  Te194     1.0  0.29997  0.18053  0.60481  1.0000
  O  Te195     1.0  0.23720  0.16622  0.57127  1.0000
  O  Te196     1.0  0.20181  0.07279  0.83731  1.0000
  Mg  Mg97      1.0  0.27867  0.19999  0.51230  1.0000
  Mg  Mg98      1.0  0.22308  0.05333  0.92989  1.0000
  C  Sn197     1.0  0.89335  0.15036  0.78566  1.0000
  C   C231      1.0  0.86595  0.14667  0.72904  1.0000
  C  Sn198     1.0  0.84589  0.11952  0.65832  1.0000
  C  Sn199     1.0  0.85336  0.09555  0.64397  1.0000
  C   C232      1.0  0.88073  0.09925  0.70060  1.0000
  C  Sn200     1.0  0.90081  0.12640  0.77131  1.0000
  O  Te197     1.0  0.91306  0.17770  0.85595  1.0000
  O  Te198     1.0  0.81864  0.11636  0.60257  1.0000
  O  Te199     1.0  0.83361  0.06820  0.57362  1.0000
  O  Te200     1.0  0.92804  0.12956  0.82707  1.0000
  Mg  Mg99      1.0  0.79922  0.07480  0.51594  1.0000
  Mg  Mg100     1.0  0.94747  0.17110  0.91377  1.0000
  C  Sn201     1.0  0.89105  0.75116  0.60359  1.0000
  C   C233      1.0  0.89022  0.77522  0.67366  1.0000
  C  Sn202     1.0  0.87635  0.76983  0.80156  1.0000
  C  Sn203     1.0  0.86305  0.73977  0.86070  1.0000
  C   C234      1.0  0.86389  0.71572  0.79066  1.0000
  C  Sn204     1.0  0.87775  0.72109  0.66274  1.0000
  O  Te201     1.0  0.90503  0.75707  0.47586  1.0000
  O  Te202     1.0  0.87579  0.79426  0.86963  1.0000
  O  Te203     1.0  0.84906  0.73387  0.98854  1.0000
  O  Te204     1.0  0.87831  0.69668  0.59469  1.0000
  Mg  Mg101     1.0  0.85502  0.77492  0.04130  1.0000
  Mg  Mg102     1.0  0.90001  0.71626  0.42305  1.0000
  C  Sn205     1.0  0.75303  0.85785  0.59951  1.0000
  C   C235      1.0  0.77676  0.88411  0.66386  1.0000
  C  Sn206     1.0  0.77071  0.89519  0.78351  1.0000
  C  Sn207     1.0  0.74032  0.87970  0.84008  1.0000
  C   C236      1.0  0.71661  0.85346  0.77576  1.0000
  C  Sn208     1.0  0.72263  0.84236  0.65608  1.0000
  O  Te205     1.0  0.75960  0.84717  0.47999  1.0000
  O  Te206     1.0  0.79481  0.92149  0.84598  1.0000
  O  Te207     1.0  0.73376  0.89040  0.95970  1.0000
  O  Te208     1.0  0.69855  0.81608  0.59364  1.0000
  Mg  Mg103     1.0  0.77523  0.92738  0.00715  1.0000
  Mg  Mg104     1.0  0.71902  0.81042  0.43251  1.0000
  C  Sn209     1.0  0.10904  0.87165  0.83343  1.0000
  C   C237      1.0  0.11820  0.89639  0.74280  1.0000
  C  Sn210     1.0  0.14011  0.90188  0.64165  1.0000
  C  Sn211     1.0  0.15312  0.88222  0.63079  1.0000
  C   C238      1.0  0.14396  0.85749  0.72136  1.0000
  C  Sn212     1.0  0.12206  0.85199  0.82257  1.0000
  O  Te209     1.0  0.08710  0.86659  0.93377  1.0000
  O  Te210     1.0  0.14890  0.92676  0.55225  1.0000
  O  Te211     1.0  0.17508  0.88730  0.53035  1.0000
  O  Te212     1.0  0.11326  0.82712  0.91191  1.0000
  Mg  Mg105     1.0  0.17959  0.92417  0.43257  1.0000
  Mg  Mg106     1.0  0.08348  0.82994  0.03158  1.0000
  C  Sn213     1.0  0.10803  0.26666  0.65455  1.0000
  C   C239      1.0  0.13061  0.28181  0.75422  1.0000
  C  Sn214     1.0  0.14402  0.26641  0.81901  1.0000
  C  Sn215     1.0  0.13470  0.23523  0.78338  1.0000
  C   C240      1.0  0.11214  0.22010  0.68375  1.0000
  C  Sn216     1.0  0.09871  0.23547  0.61892  1.0000
  O  Te213     1.0  0.09493  0.28250  0.59110  1.0000
  O  Te214     1.0  0.16654  0.28204  0.91837  1.0000
  O  Te215     1.0  0.14782  0.21939  0.84693  1.0000
  O  Te216     1.0  0.07621  0.21986  0.51960  1.0000
  Mg  Mg107     1.0  0.17759  0.25058  0.97586  1.0000
  Mg  Mg108     1.0  0.06516  0.25130  0.46200  1.0000
  C  Sn217     1.0  0.36945  0.10404  0.94522  1.0000
  C   C241      1.0  0.38119  0.13474  0.90154  1.0000
  C  Sn218     1.0  0.40907  0.14998  0.82857  1.0000
  C  Sn219     1.0  0.42556  0.13420  0.79855  1.0000
  C   C242      1.0  0.41382  0.10352  0.84220  1.0000
  C  Sn220     1.0  0.38594  0.08826  0.91520  1.0000
  O  Te217     1.0  0.34245  0.08952  0.01802  1.0000
  O  Te218     1.0  0.42034  0.18068  0.78602  1.0000
  O  Te219     1.0  0.45350  0.14901  0.72569  1.0000
  O  Te220     1.0  0.37467  0.05758  0.95771  1.0000
  Mg  Mg109     1.0  0.45937  0.19089  0.68971  1.0000
  Mg  Mg110     1.0  0.33655  0.04760  0.05396  1.0000
  C  Sn221     1.0  0.85538  0.28505  0.83052  1.0000
  C   C243      1.0  0.88507  0.30407  0.88399  1.0000
  C  Sn222     1.0  0.90488  0.29217  0.90684  1.0000
  C  Sn223     1.0  0.89480  0.26060  0.87552  1.0000
  C   C244      1.0  0.86513  0.24160  0.82206  1.0000
  C  Sn224     1.0  0.84530  0.25348  0.79920  1.0000
  O  Te221     1.0  0.83597  0.29744  0.80849  1.0000
  O  Te222     1.0  0.93446  0.31164  0.96043  1.0000
  O  Te223     1.0  0.91424  0.24822  0.89760  1.0000
  O  Te224     1.0  0.81574  0.23403  0.74563  1.0000
  Mg  Mg111     1.0  0.95241  0.28397  0.97226  1.0000
  Mg  Mg112     1.0  0.79777  0.26167  0.73369  1.0000
  C  Sn225     1.0  0.73270  0.58694  0.75197  1.0000
  C   C245      1.0  0.75384  0.61620  0.80464  1.0000
  C  Sn226     1.0  0.74432  0.63008  0.90238  1.0000
  C  Sn227     1.0  0.71301  0.61437  0.94851  1.0000
  C   C246      1.0  0.69189  0.58513  0.89586  1.0000
  C  Sn228     1.0  0.70139  0.57124  0.79809  1.0000
  O  Te225     1.0  0.74273  0.57351  0.65434  1.0000
  O  Te226     1.0  0.76588  0.65935  0.95351  1.0000
  O  Te227     1.0  0.70390  0.62810  0.04621  1.0000
  O  Te228     1.0  0.67985  0.54198  0.74700  1.0000
  Mg  Mg113     1.0  0.74195  0.66831  0.08514  1.0000
  Mg  Mg114     1.0  0.70467  0.53326  0.61542  1.0000
  C  Sn229     1.0  0.58661  0.85371  0.76766  1.0000
  C   C247      1.0  0.61697  0.86253  0.80627  1.0000
  C  Sn230     1.0  0.63334  0.88760  0.89423  1.0000
  C  Sn231     1.0  0.61906  0.90420  0.94473  1.0000
  C   C248      1.0  0.58871  0.89538  0.90614  1.0000
  C  Sn232     1.0  0.57233  0.87031  0.81816  1.0000
  O  Te229     1.0  0.57068  0.82857  0.67963  1.0000
  O  Te230     1.0  0.66368  0.89598  0.93134  1.0000
  O  Te231     1.0  0.63594  0.92962  0.03282  1.0000
  O  Te232     1.0  0.54201  0.86192  0.78107  1.0000
  Mg  Mg115     1.0  0.67676  0.93213  0.05384  1.0000
  Mg  Mg116     1.0  0.52982  0.82603  0.65864  1.0000
  C  Sn233     1.0  0.14815  0.73315  0.78069  1.0000
  C   C249      1.0  0.13891  0.75446  0.81875  1.0000
  C  Sn234     1.0  0.11324  0.74529  0.90397  1.0000
  C  Sn235     1.0  0.09646  0.71417  0.95223  1.0000
  C   C250      1.0  0.10571  0.69288  0.91419  1.0000
  C  Sn236     1.0  0.13137  0.70203  0.82895  1.0000
  O  Te233     1.0  0.17389  0.74284  0.69541  1.0000
  O  Te234     1.0  0.10444  0.76701  0.94058  1.0000
  O  Te235     1.0  0.07163  0.70476  0.03757  1.0000
  O  Te236     1.0  0.14018  0.68034  0.79236  1.0000
  Mg  Mg117     1.0  0.06871  0.74290  0.05897  1.0000
  Mg  Mg118     1.0  0.17683  0.70468  0.67404  1.0000
  C  Sn237     1.0  0.26899  0.41421  0.76824  1.0000
  C   C251      1.0  0.24724  0.38441  0.81422  1.0000
  C  Sn238     1.0  0.25563  0.36935  0.91042  1.0000
  C  Sn239     1.0  0.28641  0.38441  0.96181  1.0000
  C   C252      1.0  0.30814  0.41419  0.91586  1.0000
  C  Sn240     1.0  0.29976  0.42926  0.81963  1.0000
  O  Te237     1.0  0.26008  0.42881  0.67202  1.0000
  O  Te238     1.0  0.23348  0.33956  0.95481  1.0000
  O  Te239     1.0  0.29622  0.37004  0.05810  1.0000
  O  Te240     1.0  0.32189  0.45904  0.77526  1.0000
  Mg  Mg119     1.0  0.25773  0.32950  0.08707  1.0000
  Mg  Mg120     1.0  0.29858  0.46939  0.64307  1.0000
  C  Sn241     1.0  0.54035  0.96469  0.70440  1.0000
  C   C253      1.0  0.51714  0.96705  0.77468  1.0000
  C  Sn242     1.0  0.50297  0.94851  0.88850  1.0000
  C  Sn243     1.0  0.51220  0.92719  0.93306  1.0000
  C   C254      1.0  0.53540  0.92484  0.86281  1.0000
  C  Sn244     1.0  0.54958  0.94336  0.74896  1.0000
  O  Te241     1.0  0.55420  0.98345  0.59088  1.0000
  O  Te242     1.0  0.47982  0.95128  0.95707  1.0000
  O  Te243     1.0  0.49925  0.90868  0.04667  1.0000
  O  Te244     1.0  0.57273  0.94061  0.68042  1.0000
  Mg  Mg121     1.0  0.46880  0.92095  0.10624  1.0000
  Mg  Mg122     1.0  0.58468  0.97119  0.53129  1.0000
  C  Sn245     1.0  0.07951  0.57737  0.87197  1.0000
  C   C255      1.0  0.08129  0.60364  0.81106  1.0000
  C  Sn246     1.0  0.05504  0.60187  0.75085  1.0000
  C  Sn247     1.0  0.02641  0.57324  0.75160  1.0000
  C   C256      1.0  0.02464  0.54699  0.81250  1.0000
  C  Sn248     1.0  0.05088  0.54875  0.87272  1.0000
  O  Te245     1.0  0.10604  0.57969  0.93155  1.0000
  O  Te246     1.0  0.05739  0.62844  0.69055  1.0000
  O  Te247     1.0  0.99987  0.57094  0.69194  1.0000
  O  Te248     1.0  0.04854  0.52219  0.93301  1.0000
  Mg  Mg123     1.0  0.01476  0.61358  0.62262  1.0000
  Mg  Mg124     1.0  0.09206  0.53729  0.00103  1.0000
  C  Sn249     1.0  0.43921  0.49390  0.94180  1.0000
  C   C257      1.0  0.45164  0.48050  0.85567  1.0000
  C  Sn250     1.0  0.43432  0.46208  0.74665  1.0000
  C  Sn251     1.0  0.40395  0.45697  0.72316  1.0000
  C   C258      1.0  0.39154  0.47037  0.80924  1.0000
  C  Sn252     1.0  0.40884  0.48879  0.91831  1.0000
  O  Te249     1.0  0.45786  0.51250  0.05016  1.0000
  O  Te250     1.0  0.44724  0.44892  0.66196  1.0000
  O  Te251     1.0  0.38622  0.43862  0.61469  1.0000
  O  Te252     1.0  0.39686  0.50221  0.00295  1.0000
  Mg  Mg125     1.0  0.41396  0.42574  0.52769  1.0000
  Mg  Mg126     1.0  0.43012  0.52541  0.13720  1.0000
  C  Sn253     1.0  0.44790  0.04126  0.76034  1.0000
  C   C259      1.0  0.46103  0.06716  0.84597  1.0000
  C  Sn254     1.0  0.48915  0.07609  0.91152  1.0000
  C  Sn255     1.0  0.50447  0.05878  0.89099  1.0000
  C   C260      1.0  0.49135  0.03290  0.80538  1.0000
  C  Sn256     1.0  0.46323  0.02395  0.73981  1.0000
  O  Te253     1.0  0.41977  0.03275  0.69585  1.0000
  O  Te254     1.0  0.50181  0.10207  0.99669  1.0000
  O  Te255     1.0  0.53262  0.06731  0.95557  1.0000
  O  Te256     1.0  0.95156  0.99799  0.65467  1.0000
  Mg  Mg127     1.0  0.54152  0.10471  0.06181  1.0000
  Mg  Mg128     1.0  0.91279  0.99561  0.58945  1.0000
  C  Sn257     1.0  0.94368  0.43907  0.91993  1.0000
  C   C261      1.0  0.97086  0.45207  0.84183  1.0000
  C  Sn258     1.0  0.97394  0.43518  0.73567  1.0000
  C  Sn259     1.0  0.94933  0.40465  0.70691  1.0000
  C   C262      1.0  0.92217  0.39167  0.78497  1.0000
  C  Sn260     1.0  0.91907  0.40855  0.89117  1.0000
  O  Te257     1.0  0.94202  0.45665  0.02557  1.0000
  O  Te258     1.0  0.00135  0.44867  0.65903  1.0000
  O  Te259     1.0  0.95193  0.38734  0.60118  1.0000
  O  Te260     1.0  0.89168  0.39507  0.96777  1.0000
  Mg  Mg129     1.0  0.99380  0.41580  0.52564  1.0000
  Mg  Mg130     1.0  0.90011  0.42818  0.10113  1.0000
  C  Sn261     1.0  0.56155  0.50407  0.92573  1.0000
  C   C263      1.0  0.54878  0.51842  0.84817  1.0000
  C  Sn262     1.0  0.56576  0.53830  0.74165  1.0000
  C  Sn263     1.0  0.59613  0.54395  0.71196  1.0000
  C   C264      1.0  0.60888  0.52960  0.78947  1.0000
  C  Sn264     1.0  0.59192  0.50972  0.89604  1.0000
  O  Te261     1.0  0.54508  0.48455  0.03173  1.0000
  O  Te262     1.0  0.55251  0.55238  0.66557  1.0000
  O  Te263     1.0  0.61352  0.56375  0.60585  1.0000
  O  Te264     1.0  0.60516  0.49564  0.97207  1.0000
  Mg  Mg131     1.0  0.58539  0.57747  0.53135  1.0000
  Mg  Mg132     1.0  0.57321  0.47080  0.10626  1.0000
  C  Sn265     1.0  0.56321  0.05154  0.67589  1.0000
  C   C265      1.0  0.54904  0.02896  0.77699  1.0000
  C  Sn266     1.0  0.56474  0.03136  0.89741  1.0000
  C  Sn267     1.0  0.59523  0.05687  0.91723  1.0000
  C   C266      1.0  0.60938  0.07944  0.81618  1.0000
  C  Sn268     1.0  0.59370  0.07706  0.69571  1.0000
  O  Te265     1.0  0.54708  0.04868  0.55631  1.0000
  O  Te266     1.0  0.55010  0.00849  0.99700  1.0000
  O  Te267     1.0  0.61228  0.05998  0.03692  1.0000
  O  Te268     1.0  0.60832  0.09991  0.59617  1.0000
  Mg  Mg133     1.0  0.58251  0.02292  0.14254  1.0000
  Mg  Mg134     1.0  0.57685  0.08577  0.45063  1.0000
  C  Sn269     1.0  0.95903  0.53179  0.92104  1.0000
  C   C267      1.0  0.96529  0.51324  0.83476  1.0000
  C  Sn270     1.0  0.95239  0.50588  0.70526  1.0000
  C  Sn271     1.0  0.93283  0.51731  0.66104  1.0000
  C   C268      1.0  0.92659  0.53586  0.74728  1.0000
  C  Sn272     1.0  0.93948  0.54323  0.87681  1.0000
  O  Te269     1.0  0.97310  0.53912  0.05007  1.0000
  O  Te270     1.0  0.95897  0.48728  0.62084  1.0000
  O  Te271     1.0  0.91968  0.51023  0.53189  1.0000
  O  Te272     1.0  0.93291  0.56182  0.96119  1.0000
  Mg  Mg135     1.0  0.93557  0.48407  0.45405  1.0000
  Mg  Mg136     1.0  0.95722  0.56532  0.12797  1.0000
  C  Sn273     1.0  0.44794  0.40511  0.87379  1.0000
  C   C269      1.0  0.45970  0.39193  0.78287  1.0000
  C  Sn274     1.0  0.48688  0.41086  0.70943  1.0000
  C  Sn275     1.0  0.50264  0.44365  0.72729  1.0000
  C   C270      1.0  0.49088  0.45682  0.81818  1.0000
  C  Sn276     1.0  0.46370  0.43790  0.89165  1.0000
  O  Te273     1.0  0.42074  0.38574  0.94614  1.0000
  O  Te274     1.0  0.49818  0.39715  0.61909  1.0000
  O  Te275     1.0  0.52986  0.46302  0.65484  1.0000
  O  Te276     1.0  0.45241  0.45160  0.98196  1.0000
  Mg  Mg137     1.0  0.53609  0.43333  0.54381  1.0000
  Mg  Mg138     1.0  0.41543  0.41570  0.05734  1.0000
  C  Sn277     1.0  0.42315  0.92253  0.72689  1.0000
  C   C271      1.0  0.39748  0.92043  0.79539  1.0000
  C  Sn278     1.0  0.40037  0.94575  0.86940  1.0000
  C  Sn279     1.0  0.42951  0.97378  0.87500  1.0000
  C   C272      1.0  0.45515  0.97588  0.80651  1.0000
  C  Sn280     1.0  0.45229  0.95056  0.73249  1.0000
  O  Te277     1.0  0.41972  0.89692  0.65351  1.0000
  O  Te278     1.0  0.37438  0.94309  0.93709  1.0000
  O  Te279     1.0  0.43291  0.99940  0.94846  1.0000
  O  Te280     1.0  0.47825  0.95322  0.66481  1.0000
  Mg  Mg139     1.0  0.39164  0.98467  0.02353  1.0000
  Mg  Mg140     1.0  0.46193  0.91193  0.57829  1.0000
  C  Sn281     1.0  0.07574  0.49775  0.69717  1.0000
  C   C273      1.0  0.08004  0.47722  0.77871  1.0000
  C  Sn282     1.0  0.05713  0.45798  0.87162  1.0000
  C  Sn283     1.0  0.02933  0.45928  0.88321  1.0000
  C   C274      1.0  0.02503  0.47980  0.80169  1.0000
  C  Sn284     1.0  0.04793  0.49905  0.70877  1.0000
  O  Te281     1.0  0.09895  0.51676  0.60498  1.0000
  O  Te282     1.0  0.06197  0.43765  0.95207  1.0000
  O  Te283     1.0  0.00611  0.44024  0.97551  1.0000
  O  Te284     1.0  0.04310  0.51936  0.62833  1.0000
  Mg  Mg141     1.0  0.02442  0.41666  0.06265  1.0000
  Mg  Mg142     1.0  0.08155  0.54061  0.51768  1.0000
  C  Sn285     1.0  0.55144  0.59360  0.87282  1.0000
  C   C275      1.0  0.54053  0.60683  0.77854  1.0000
  C  Sn286     1.0  0.51382  0.58796  0.70315  1.0000
  C  Sn287     1.0  0.49765  0.55520  0.72246  1.0000
  C   C276      1.0  0.50856  0.54199  0.81671  1.0000
  C  Sn288     1.0  0.53528  0.56084  0.89213  1.0000
  O  Te285     1.0  0.57820  0.61290  0.94708  1.0000
  O  Te286     1.0  0.50336  0.60172  0.60945  1.0000
  O  Te287     1.0  0.47087  0.53590  0.64810  1.0000
  O  Te288     1.0  0.54573  0.54710  0.98579  1.0000
  Mg  Mg143     1.0  0.46579  0.56562  0.53261  1.0000
  Mg  Mg144     1.0  0.58420  0.58343  0.06274  1.0000
