data_image0
_chemical_formula_structural       H208C328N32O4C2Sn2C2HTe2HMgC2Sn2C2HTe2HMgC2Sn2C2HTe2HMgC2Sn2C2HTe2HMgC2Sn2C2HTe2HMgC2Sn2C2HTe2HMgC2Sn2C2HTe2HMgC2Sn2C2HTe2HMgC2Sn2C2HTe2HMgC2Sn2C2HTe2HMgC2Sn2C2HTe2HMgC2Sn2C2HTe2HMgC2Sn2C2HTe2HMgC2Sn2C2HTe2HMgC2Sn2C2HTe2HMgC2Sn2C2HTe2HMgC2Sn2C2HTe2HMgC2Sn2C2HTe2HMgC2Sn2C2HTe2HMgC2Sn2C2HTe2HMgC2Sn2C2HTe2HMgC2Sn2C2HTe2HMgC2Sn2C2HTe2HMgC2Sn2C2HTe2HMgC2Sn2C2HTe2HMgC2Sn2C2HTe2HMgC2Sn2C2HTe2HMgC2Sn2C2HTe2HMgC2Sn2C2HTe2HMgC2Sn2C2HTe2HMgC2Sn2C2HTe2HMgC2Sn2C2HTe2HMgC2Sn2C2HTe2HMgC2Sn2C2HTe2HMg
_chemical_formula_sum              "H276 C464 N32 O4 Sn68 Te68 Mg34"
_cell_length_a       49.4025
_cell_length_b       49.4984
_cell_length_c       9.13589
_cell_angle_alpha    98.1492
_cell_angle_beta     96.6137
_cell_angle_gamma    55.1116

_symmetry_space_group_name_H-M    'P1'
_space_group_IT_number       1

loop_
  _space_group_symop_operation_xyz
  'x, y, z'

loop_
  _atom_site_type_symbol
  _atom_site_label
  _atom_site_symmetry_multiplicity
  _atom_site_fract_x
  _atom_site_fract_y
  _atom_site_fract_z
  _atom_site_occupancy
  H   H1        1.0  0.90068  0.30824  0.24666  1.0000
  H   H2        1.0  0.09559  0.67466  0.30662  1.0000
  H   H3        1.0  0.82093  0.29702  0.26227  1.0000
  H   H4        1.0  0.17651  0.68403  0.29076  1.0000
  H   H5        1.0  0.80009  0.39198  0.20542  1.0000
  H   H6        1.0  0.19469  0.58769  0.26052  1.0000
  H   H7        1.0  0.77057  0.32047  0.13054  1.0000
  H   H8        1.0  0.21695  0.65693  0.12833  1.0000
  H   H9        1.0  0.70964  0.34986  0.11947  1.0000
  H   H10       1.0  0.27602  0.63030  0.08600  1.0000
  H   H11       1.0  0.69920  0.43896  0.32269  1.0000
  H   H12       1.0  0.30186  0.54746  0.31083  1.0000
  H   H13       1.0  0.76023  0.40903  0.34497  1.0000
  H   H14       1.0  0.24284  0.57505  0.36327  1.0000
  H   H15       1.0  0.87397  0.45961  0.07289  1.0000
  H   H16       1.0  0.11140  0.52154  0.14043  1.0000
  H   H17       1.0  0.96905  0.14899  0.39679  1.0000
  H   H18       1.0  0.03543  0.84093  0.39601  1.0000
  H   H19       1.0  0.65601  0.39692  0.17888  1.0000
  H   H20       1.0  0.33411  0.58844  0.14675  1.0000
  H   H21       1.0  0.43306  0.55988  0.04844  1.0000
  H   H22       1.0  0.55601  0.42352  0.04407  1.0000
  H   H23       1.0  0.41698  0.61752  0.07084  1.0000
  H   H24       1.0  0.57229  0.36677  0.05854  1.0000
  H   H25       1.0  0.51730  0.53317  0.34298  1.0000
  H   H26       1.0  0.47906  0.46075  0.34687  1.0000
  H   H27       1.0  0.50059  0.59092  0.37002  1.0000
  H   H28       1.0  0.49696  0.40348  0.37077  1.0000
  H   H29       1.0  0.02224  0.03330  0.37805  1.0000
  H   H30       1.0  0.00202  0.09130  0.38085  1.0000
  H   H31       1.0  0.92176  0.10704  0.07906  1.0000
  H   H32       1.0  0.94174  0.04853  0.07872  1.0000
  H   H33       1.0  0.32090  0.80990  0.20329  1.0000
  H   H34       1.0  0.69036  0.17911  0.15839  1.0000
  H   H35       1.0  0.31829  0.89696  0.16883  1.0000
  H   H36       1.0  0.69349  0.08948  0.11963  1.0000
  H   H37       1.0  0.40982  0.80066  0.12329  1.0000
  H   H38       1.0  0.60084  0.18321  0.07944  1.0000
  H   H39       1.0  0.35648  0.76512  0.31977  1.0000
  H   H40       1.0  0.64671  0.23185  0.30797  1.0000
  H   H41       1.0  0.38838  0.70406  0.31567  1.0000
  H   H42       1.0  0.60731  0.29310  0.31327  1.0000
  H   H43       1.0  0.44664  0.71244  0.50634  1.0000
  H   H44       1.0  0.54512  0.29805  0.44814  1.0000
  H   H45       1.0  0.42290  0.75453  0.01390  1.0000
  H   H46       1.0  0.59218  0.22052  0.93014  1.0000
  H   H47       1.0  0.73199  0.15001  0.32020  1.0000
  H   H48       1.0  0.79266  0.11964  0.35180  1.0000
  H   H49       1.0  0.80406  0.03890  0.05206  1.0000
  H   H50       1.0  0.74305  0.06995  0.01439  1.0000
  H   H51       1.0  0.45085  0.64659  0.03816  1.0000
  H   H52       1.0  0.54591  0.33618  0.01063  1.0000
  H   H53       1.0  0.17364  0.91910  0.40846  1.0000
  H   H54       1.0  0.84476  0.07776  0.28879  1.0000
  H   H55       1.0  0.42245  0.93613  0.09302  1.0000
  H   H56       1.0  0.57998  0.05568  0.05333  1.0000
  H   H57       1.0  0.07912  0.92648  0.37073  1.0000
  H   H58       1.0  0.94433  0.03760  0.42298  1.0000
  H   H59       1.0  0.13434  0.91386  0.37087  1.0000
  H   H60       1.0  0.88800  0.05162  0.40883  1.0000
  H   H61       1.0  0.09691  0.99728  0.12334  1.0000
  H   H62       1.0  0.91084  0.98362  0.01729  1.0000
  H   H63       1.0  0.04138  0.00925  0.11862  1.0000
  H   H64       1.0  0.96858  0.96684  0.04440  1.0000
  H   H65       1.0  0.81858  0.89019  0.18910  1.0000
  H   H66       1.0  0.20882  0.08613  0.20475  1.0000
  H   H67       1.0  0.91208  0.79719  0.24423  1.0000
  H   H68       1.0  0.11319  0.17702  0.27931  1.0000
  H   H69       1.0  0.82580  0.79913  0.08354  1.0000
  H   H70       1.0  0.19152  0.17890  0.13377  1.0000
  H   H71       1.0  0.25724  0.16033  0.42715  1.0000
  H   H72       1.0  0.19985  0.17703  0.44134  1.0000
  H   H73       1.0  0.84011  0.90338  0.38984  1.0000
  H   H74       1.0  0.19069  0.07427  0.39265  1.0000
  H   H75       1.0  0.86484  0.93481  0.47888  1.0000
  H   H76       1.0  0.16659  0.04662  0.47350  1.0000
  H   H77       1.0  0.95381  0.86009  0.25742  1.0000
  H   H78       1.0  0.07311  0.11616  0.26567  1.0000
  H   H79       1.0  0.92852  0.82903  0.16127  1.0000
  H   H80       1.0  0.09735  0.14352  0.18042  1.0000
  H   H81       1.0  0.08455  0.22395  0.12082  1.0000
  H   H82       1.0  0.05154  0.28540  0.14082  1.0000
  H   H83       1.0  0.13563  0.28359  0.34007  1.0000
  H   H84       1.0  0.16899  0.22206  0.31885  1.0000
  H   H85       1.0  0.66937  0.89968  0.93555  1.0000
  H   H86       1.0  0.34415  0.08325  0.95877  1.0000
  H   H87       1.0  0.90956  0.94083  0.50170  1.0000
  H   H88       1.0  0.12179  0.04219  0.49239  1.0000
  H   H89       1.0  0.95325  0.63823  0.14012  1.0000
  H   H90       1.0  0.04602  0.33631  0.20832  1.0000
  H   H91       1.0  0.93057  0.53978  0.12687  1.0000
  H   H92       1.0  0.89472  0.59971  0.09496  1.0000
  H   H93       1.0  0.96505  0.61327  0.35412  1.0000
  H   H94       1.0  0.00095  0.55413  0.38216  1.0000
  H   H95       1.0  0.01959  0.51793  0.04717  1.0000
  H   H96       1.0  0.05824  0.53485  0.08766  1.0000
  H   H97       1.0  0.04425  0.48565  0.48345  1.0000
  H   H98       1.0  0.08567  0.49953  0.51991  1.0000
  H   H99       1.0  0.90978  0.32669  0.80053  1.0000
  H   H100      1.0  0.10692  0.69345  0.76432  1.0000
  H   H101      1.0  0.82706  0.31886  0.77689  1.0000
  H   H102      1.0  0.18586  0.70411  0.70953  1.0000
  H   H103      1.0  0.81194  0.41011  0.69738  1.0000
  H   H104      1.0  0.20562  0.60756  0.70298  1.0000
  H   H105      1.0  0.11508  0.64876  0.93001  1.0000
  H   H106      1.0  0.10238  0.60660  0.92671  1.0000
  H   H107      1.0  0.16167  0.55283  0.54701  1.0000
  H   H108      1.0  0.17541  0.59372  0.55384  1.0000
  H   H109      1.0  0.92200  0.28546  0.99771  1.0000
  H   H110      1.0  0.08683  0.74328  0.89375  1.0000
  H   H111      1.0  0.95472  0.22527  0.02729  1.0000
  H   H112      1.0  0.04911  0.80408  0.90844  1.0000
  H   H113      1.0  0.90223  0.21114  0.65005  1.0000
  H   H114      1.0  0.10812  0.80730  0.60995  1.0000
  H   H115      1.0  0.86832  0.27163  0.62367  1.0000
  H   H116      1.0  0.14603  0.74616  0.59273  1.0000
  H   H117      1.0  0.23016  0.67007  0.53217  1.0000
  H   H118      1.0  0.29028  0.63912  0.49546  1.0000
  H   H119      1.0  0.30943  0.56740  0.78055  1.0000
  H   H120      1.0  0.24947  0.59920  0.82410  1.0000
  H   H121      1.0  0.90564  0.45776  0.55756  1.0000
  H   H122      1.0  0.11756  0.54589  0.60532  1.0000
  H   H123      1.0  0.96289  0.16952  0.95864  1.0000
  H   H124      1.0  0.03354  0.85770  0.84868  1.0000
  H   H125      1.0  0.66790  0.40996  0.62633  1.0000
  H   H126      1.0  0.34702  0.59811  0.57874  1.0000
  H   H127      1.0  0.47083  0.48181  0.56380  1.0000
  H   H128      1.0  0.41354  0.49688  0.54578  1.0000
  H   H129      1.0  0.38194  0.58875  0.80652  1.0000
  H   H130      1.0  0.43902  0.57357  0.82635  1.0000
  H   H131      1.0  0.56397  0.43291  0.55469  1.0000
  H   H132      1.0  0.57209  0.37895  0.55641  1.0000
  H   H133      1.0  0.48960  0.47632  0.87521  1.0000
  H   H134      1.0  0.49890  0.42170  0.88485  1.0000
  H   H135      1.0  0.98333  0.97240  0.88332  1.0000
  H   H136      1.0  0.00554  0.91312  0.87349  1.0000
  H   H137      1.0  0.07257  0.89170  0.54383  1.0000
  H   H138      1.0  0.04970  0.95151  0.55509  1.0000
  H   H139      1.0  0.30838  0.81958  0.70246  1.0000
  H   H140      1.0  0.67840  0.19646  0.70397  1.0000
  H   H141      1.0  0.30353  0.90890  0.68085  1.0000
  H   H142      1.0  0.68010  0.10847  0.69882  1.0000
  H   H143      1.0  0.39639  0.81479  0.65467  1.0000
  H   H144      1.0  0.58848  0.20120  0.61814  1.0000
  H   H145      1.0  0.35021  0.77069  0.82726  1.0000
  H   H146      1.0  0.63705  0.24954  0.82858  1.0000
  H   H147      1.0  0.39037  0.70963  0.82229  1.0000
  H   H148      1.0  0.60052  0.31061  0.81688  1.0000
  H   H149      1.0  0.45374  0.69385  0.00697  1.0000
  H   H150      1.0  0.55405  0.28136  0.93146  1.0000
  H   H151      1.0  0.40730  0.77292  0.51229  1.0000
  H   H152      1.0  0.58081  0.23735  0.46105  1.0000
  H   H153      1.0  0.26522  0.84938  0.81242  1.0000
  H   H154      1.0  0.20485  0.88047  0.81910  1.0000
  H   H155      1.0  0.19430  0.96240  0.64513  1.0000
  H   H156      1.0  0.25476  0.93028  0.62516  1.0000
  H   H157      1.0  0.64923  0.09187  0.52899  1.0000
  H   H158      1.0  0.61590  0.06854  0.51245  1.0000
  H   H159      1.0  0.53760  0.15800  0.73852  1.0000
  H   H160      1.0  0.57152  0.18093  0.76116  1.0000
  H   H161      1.0  0.45774  0.65920  0.55550  1.0000
  H   H162      1.0  0.54047  0.35240  0.51389  1.0000
  H   H163      1.0  0.15284  0.92323  0.75932  1.0000
  H   H164      1.0  0.83139  0.08900  0.91320  1.0000
  H   H165      1.0  0.40867  0.94045  0.51163  1.0000
  H   H166      1.0  0.57192  0.06922  0.58174  1.0000
  H   H167      1.0  0.45412  0.07795  0.55177  1.0000
  H   H168      1.0  0.46845  0.11801  0.54005  1.0000
  H   H169      1.0  0.55954  0.05675  0.78488  1.0000
  H   H170      1.0  0.54599  0.01669  0.79399  1.0000
  H   H171      1.0  0.53664  0.99200  0.44830  1.0000
  H   H172      1.0  0.59758  0.95365  0.46077  1.0000
  H   H173      1.0  0.53170  0.96680  0.86892  1.0000
  H   H174      1.0  0.59258  0.92574  0.87748  1.0000
  H   H175      1.0  0.05992  0.96312  0.90428  1.0000
  H   H176      1.0  0.11557  0.95051  0.90486  1.0000
  H   H177      1.0  0.08317  0.01767  0.57094  1.0000
  H   H178      1.0  0.02597  0.03369  0.58808  1.0000
  H   H179      1.0  0.78932  0.90064  0.68730  1.0000
  H   H180      1.0  0.18057  0.11065  0.64354  1.0000
  H   H181      1.0  0.88431  0.80799  0.69959  1.0000
  H   H182      1.0  0.08594  0.20178  0.73137  1.0000
  H   H183      1.0  0.79791  0.80929  0.55224  1.0000
  H   H184      1.0  0.16571  0.20404  0.60933  1.0000
  H   H185      1.0  0.23332  0.09934  0.71931  1.0000
  H   H186      1.0  0.29089  0.08307  0.70754  1.0000
  H   H187      1.0  0.06211  0.25820  0.55883  1.0000
  H   H188      1.0  0.04191  0.31761  0.58256  1.0000
  H   H189      1.0  0.12745  0.29609  0.85707  1.0000
  H   H190      1.0  0.14689  0.23685  0.84077  1.0000
  H   H191      1.0  0.64210  0.90135  0.47312  1.0000
  H   H192      1.0  0.31801  0.11842  0.47625  1.0000
  H   H193      1.0  0.89331  0.93621  0.04800  1.0000
  H   H194      1.0  0.10183  0.06585  0.97913  1.0000
  H   H195      1.0  0.94516  0.65076  0.62850  1.0000
  H   H196      1.0  0.04793  0.36332  0.69699  1.0000
  H   H197      1.0  0.07221  0.44723  0.58738  1.0000
  H   H198      1.0  0.96506  0.53450  0.54383  1.0000
  H   H199      1.0  0.10467  0.38638  0.57713  1.0000
  H   H200      1.0  0.91666  0.59094  0.49481  1.0000
  H   H201      1.0  0.05828  0.39359  0.96472  1.0000
  H   H202      1.0  0.94420  0.63113  0.88425  1.0000
  H   H203      1.0  0.02561  0.45460  0.97510  1.0000
  H   H204      1.0  0.99097  0.57432  0.94006  1.0000
  H   H205      1.0  0.01100  0.44358  0.60583  1.0000
  H   H206      1.0  0.96875  0.43202  0.60812  1.0000
  H   H207      1.0  0.95342  0.53283  0.89156  1.0000
  H   H208      1.0  0.91178  0.52028  0.89993  1.0000
  C   C1        1.0  0.88109  0.44844  0.17849  1.0000
  C   C2        1.0  0.10510  0.53752  0.24516  1.0000
  C   C3        1.0  0.94977  0.15735  0.30733  1.0000
  C   C4        1.0  0.05262  0.82648  0.30588  1.0000
  C   C5        1.0  0.85156  0.35276  0.22446  1.0000
  C   C6        1.0  0.14389  0.62860  0.28632  1.0000
  C   C7        1.0  0.87431  0.31904  0.24484  1.0000
  C   C8        1.0  0.12197  0.66331  0.30155  1.0000
  C   C9        1.0  0.86347  0.29851  0.25346  1.0000
  C   C10       1.0  0.13342  0.68357  0.29973  1.0000
  C   C11       1.0  0.82928  0.31266  0.24972  1.0000
  C   C12       1.0  0.16745  0.66843  0.28695  1.0000
  C   C13       1.0  0.80606  0.34659  0.23610  1.0000
  C   C14       1.0  0.18992  0.63392  0.27223  1.0000
  C   C15       1.0  0.81777  0.36593  0.22085  1.0000
  C   C16       1.0  0.17766  0.61447  0.27315  1.0000
  C   C17       1.0  0.76996  0.36281  0.23496  1.0000
  C   C18       1.0  0.22535  0.61808  0.24915  1.0000
  C   C19       1.0  0.75515  0.34623  0.17493  1.0000
  C   C20       1.0  0.23545  0.63336  0.17195  1.0000
  C   C21       1.0  0.72091  0.36283  0.16725  1.0000
  C   C22       1.0  0.26868  0.61817  0.14637  1.0000
  C   C23       1.0  0.70037  0.39665  0.21636  1.0000
  C   C24       1.0  0.29285  0.58671  0.19339  1.0000
  C   C25       1.0  0.71508  0.41314  0.27991  1.0000
  C   C26       1.0  0.28293  0.57132  0.27074  1.0000
  C   C27       1.0  0.74920  0.39633  0.29038  1.0000
  C   C28       1.0  0.24985  0.58687  0.29898  1.0000
  C   C29       1.0  0.66465  0.41331  0.20317  1.0000
  C   C30       1.0  0.32765  0.57148  0.16820  1.0000
  C   C31       1.0  0.48136  0.50898  0.18894  1.0000
  C   C32       1.0  0.51156  0.47927  0.19378  1.0000
  C   C33       1.0  0.47640  0.54175  0.19360  1.0000
  C   C34       1.0  0.51637  0.44669  0.19506  1.0000
  C   C35       1.0  0.45764  0.60834  0.22231  1.0000
  C   C36       1.0  0.53600  0.38097  0.21628  1.0000
  C   C37       1.0  0.44839  0.56639  0.11638  1.0000
  C   C38       1.0  0.54254  0.41936  0.11351  1.0000
  C   C39       1.0  0.43927  0.59883  0.12837  1.0000
  C   C40       1.0  0.55190  0.38738  0.12183  1.0000
  C   C41       1.0  0.49563  0.55122  0.28048  1.0000
  C   C42       1.0  0.49951  0.44023  0.28352  1.0000
  C   C43       1.0  0.48634  0.58386  0.29586  1.0000
  C   C44       1.0  0.50945  0.40794  0.29662  1.0000
  C   C45       1.0  0.98336  0.03584  0.23227  1.0000
  C   C46       1.0  0.99985  0.04925  0.31362  1.0000
  C   C47       1.0  0.98833  0.08245  0.31459  1.0000
  C   C48       1.0  0.95927  0.10417  0.23209  1.0000
  C   C49       1.0  0.94357  0.09054  0.14581  1.0000
  C   C50       1.0  0.95500  0.05764  0.14633  1.0000
  C   C51       1.0  0.44121  0.65876  0.14787  1.0000
  C   C52       1.0  0.55581  0.32731  0.12089  1.0000
  C   C53       1.0  0.17699  0.92654  0.30767  1.0000
  C   C54       1.0  0.83824  0.06151  0.22495  1.0000
  C   C55       1.0  0.36784  0.80099  0.16574  1.0000
  C   C56       1.0  0.64330  0.18542  0.11798  1.0000
  C   C57       1.0  0.33379  0.82118  0.18868  1.0000
  C   C58       1.0  0.67775  0.16664  0.14158  1.0000
  C   C59       1.0  0.31556  0.85578  0.18800  1.0000
  C   C60       1.0  0.69639  0.13185  0.13847  1.0000
  C   C61       1.0  0.33213  0.87015  0.16396  1.0000
  C   C62       1.0  0.67967  0.11610  0.11482  1.0000
  C   C63       1.0  0.36637  0.85065  0.14209  1.0000
  C   C64       1.0  0.64513  0.13460  0.09664  1.0000
  C   C65       1.0  0.38350  0.81620  0.14166  1.0000
  C   C66       1.0  0.62757  0.16891  0.09512  1.0000
  C   C67       1.0  0.73277  0.11251  0.16349  1.0000
  C   C68       1.0  0.38708  0.76458  0.16649  1.0000
  C   C69       1.0  0.62210  0.22185  0.11875  1.0000
  C   C70       1.0  0.37763  0.74963  0.25012  1.0000
  C   C71       1.0  0.62651  0.24267  0.22517  1.0000
  C   C72       1.0  0.39564  0.71538  0.24950  1.0000
  C   C73       1.0  0.60435  0.27692  0.22952  1.0000
  C   C74       1.0  0.42341  0.69488  0.16242  1.0000
  C   C75       1.0  0.57768  0.29137  0.12513  1.0000
  C   C76       1.0  0.43302  0.70959  0.07883  1.0000
  C   C77       1.0  0.57382  0.27057  0.01621  1.0000
  C   C78       1.0  0.41549  0.74380  0.08276  1.0000
  C   C79       1.0  0.59526  0.23642  0.01522  1.0000
  C   C80       1.0  0.74753  0.12598  0.25891  1.0000
  C   C81       1.0  0.78171  0.10873  0.27786  1.0000
  C   C82       1.0  0.80270  0.07707  0.20418  1.0000
  C   C83       1.0  0.78805  0.06310  0.11128  1.0000
  C   C84       1.0  0.75384  0.08056  0.09140  1.0000
  C   C85       1.0  0.43820  0.90899  0.09192  1.0000
  C   C86       1.0  0.56637  0.08255  0.08390  1.0000
  C   C87       1.0  0.52361  0.99427  0.15903  1.0000
  C   C88       1.0  0.49848  0.98989  0.14941  1.0000
  C   C89       1.0  0.96040  0.00311  0.22805  1.0000
  C   C90       1.0  0.05493  0.96927  0.24604  1.0000
  C   C91       1.0  0.08241  0.94285  0.31934  1.0000
  C   C92       1.0  0.93693  0.02597  0.33283  1.0000
  C   C93       1.0  0.11401  0.93572  0.32049  1.0000
  C   C94       1.0  0.90479  0.03446  0.32279  1.0000
  C   C95       1.0  0.12021  0.95497  0.24847  1.0000
  C   C96       1.0  0.89407  0.02106  0.20234  1.0000
  C   C97       1.0  0.09278  0.98233  0.18168  1.0000
  C   C98       1.0  0.91816  0.99557  0.10640  1.0000
  C   C99       1.0  0.06120  0.98908  0.17949  1.0000
  C   C100      1.0  0.95073  0.98658  0.12025  1.0000
  C   C101      1.0  0.68083  0.89547  0.04822  1.0000
  C   C102      1.0  0.33794  0.08536  0.07351  1.0000
  C   C103      1.0  0.92615  0.91709  0.43490  1.0000
  C   C104      1.0  0.10407  0.06386  0.42919  1.0000
  C   C105      1.0  0.81799  0.84670  0.13291  1.0000
  C   C106      1.0  0.20416  0.13059  0.16456  1.0000
  C   C107      1.0  0.83312  0.86332  0.18197  1.0000
  C   C108      1.0  0.19225  0.11289  0.20451  1.0000
  C   C109      1.0  0.86728  0.84563  0.21711  1.0000
  C   C110      1.0  0.15899  0.12924  0.24025  1.0000
  C   C111      1.0  0.88611  0.81081  0.20819  1.0000
  C   C112      1.0  0.13813  0.16389  0.24096  1.0000
  C   C113      1.0  0.87108  0.79382  0.16352  1.0000
  C   C114      1.0  0.14966  0.18210  0.20445  1.0000
  C   C115      1.0  0.83746  0.81215  0.12111  1.0000
  C   C116      1.0  0.18235  0.16500  0.16271  1.0000
  C   C117      1.0  0.12915  0.21861  0.21746  1.0000
  C   C118      1.0  0.88244  0.86401  0.26889  1.0000
  C   C119      1.0  0.14566  0.11129  0.28271  1.0000
  C   C120      1.0  0.86466  0.89425  0.35732  1.0000
  C   C121      1.0  0.16508  0.08331  0.36290  1.0000
  C   C122      1.0  0.87866  0.91169  0.40868  1.0000
  C   C123      1.0  0.15154  0.06793  0.40931  1.0000
  C   C124      1.0  0.91102  0.89919  0.37399  1.0000
  C   C125      1.0  0.11822  0.07997  0.37613  1.0000
  C   C126      1.0  0.92890  0.86915  0.28467  1.0000
  C   C127      1.0  0.09876  0.10745  0.29318  1.0000
  C   C128      1.0  0.91478  0.85191  0.23264  1.0000
  C   C129      1.0  0.11235  0.12269  0.24701  1.0000
  C   C130      1.0  0.09570  0.23693  0.16995  1.0000
  C   C131      1.0  0.07729  0.27136  0.18053  1.0000
  C   C132      1.0  0.09166  0.28841  0.24030  1.0000
  C   C133      1.0  0.12495  0.27016  0.29094  1.0000
  C   C134      1.0  0.14331  0.23590  0.27857  1.0000
  C   C135      1.0  0.92676  0.65518  0.16149  1.0000
  C   C136      1.0  0.07205  0.32435  0.24693  1.0000
  C   C137      1.0  0.96995  0.54140  0.24846  1.0000
  C   C138      1.0  0.99113  0.48126  0.26495  1.0000
  C   C139      1.0  0.99612  0.50554  0.25773  1.0000
  C   C140      1.0  0.02898  0.50078  0.26344  1.0000
  C   C141      1.0  0.93860  0.55559  0.17494  1.0000
  C   C142      1.0  0.91817  0.58944  0.15754  1.0000
  C   C143      1.0  0.92854  0.61036  0.21240  1.0000
  C   C144      1.0  0.95827  0.59691  0.29833  1.0000
  C   C145      1.0  0.97822  0.56353  0.31510  1.0000
  C   C146      1.0  0.07419  0.51913  0.30823  1.0000
  C   C147      1.0  0.03482  0.51287  0.14891  1.0000
  C   C148      1.0  0.05668  0.52231  0.17134  1.0000
  C   C149      1.0  0.04901  0.49433  0.39334  1.0000
  C   C150      1.0  0.07166  0.50295  0.41545  1.0000
  C   C151      1.0  0.02282  0.97235  0.23505  1.0000
  C   C152      1.0  0.99175  0.00157  0.23292  1.0000
  C   C153      1.0  0.90644  0.45335  0.67307  1.0000
  C   C154      1.0  0.12022  0.55462  0.72040  1.0000
  C   C155      1.0  0.94909  0.17848  0.85336  1.0000
  C   C156      1.0  0.05383  0.84634  0.77242  1.0000
  C   C157      1.0  0.86217  0.37097  0.74917  1.0000
  C   C158      1.0  0.15526  0.64792  0.73799  1.0000
  C   C159      1.0  0.88332  0.33804  0.78485  1.0000
  C   C160      1.0  0.13294  0.68252  0.75045  1.0000
  C   C161      1.0  0.87091  0.31877  0.79008  1.0000
  C   C162      1.0  0.14343  0.70322  0.73659  1.0000
  C   C163      1.0  0.83680  0.33338  0.76647  1.0000
  C   C164      1.0  0.17711  0.68847  0.71383  1.0000
  C   C165      1.0  0.81514  0.36641  0.73475  1.0000
  C   C166      1.0  0.19984  0.65398  0.70290  1.0000
  C   C167      1.0  0.82834  0.38465  0.72469  1.0000
  C   C168      1.0  0.18835  0.63430  0.71402  1.0000
  C   C169      1.0  0.23543  0.63692  0.68069  1.0000
  C   C170      1.0  0.89254  0.28297  0.80965  1.0000
  C   C171      1.0  0.11982  0.73975  0.74367  1.0000
  C   C172      1.0  0.14618  0.62423  0.74175  1.0000
  C   C173      1.0  0.12541  0.62767  0.84661  1.0000
  C   C174      1.0  0.11857  0.60393  0.84630  1.0000
  C   C175      1.0  0.13160  0.57656  0.73856  1.0000
  C   C176      1.0  0.15235  0.57316  0.63410  1.0000
  C   C177      1.0  0.15998  0.59623  0.63761  1.0000
  C   C178      1.0  0.91773  0.26924  0.92072  1.0000
  C   C179      1.0  0.09154  0.75690  0.82891  1.0000
  C   C180      1.0  0.93622  0.23536  0.93697  1.0000
  C   C181      1.0  0.07009  0.79135  0.83732  1.0000
  C   C182      1.0  0.93083  0.21408  0.83896  1.0000
  C   C183      1.0  0.07587  0.81010  0.75962  1.0000
  C   C184      1.0  0.90607  0.22780  0.72575  1.0000
  C   C185      1.0  0.10388  0.79295  0.67214  1.0000
  C   C186      1.0  0.88716  0.26151  0.71248  1.0000
  C   C187      1.0  0.12521  0.75873  0.66461  1.0000
  C   C188      1.0  0.24747  0.64804  0.58914  1.0000
  C   C189      1.0  0.28120  0.63041  0.56718  1.0000
  C   C190      1.0  0.30372  0.60096  0.63441  1.0000
  C   C191      1.0  0.29176  0.58970  0.72575  1.0000
  C   C192      1.0  0.25825  0.60753  0.74899  1.0000
  C   C193      1.0  0.67508  0.42749  0.65427  1.0000
  C   C194      1.0  0.33911  0.58386  0.61964  1.0000
  C   C195      1.0  0.45981  0.52642  0.69660  1.0000
  C   C196      1.0  0.49300  0.52062  0.70625  1.0000
  C   C197      1.0  0.52280  0.49040  0.70894  1.0000
  C   C198      1.0  0.52558  0.45894  0.71180  1.0000
  C   C199      1.0  0.45161  0.50509  0.61897  1.0000
  C   C200      1.0  0.41941  0.51335  0.60914  1.0000
  C   C201      1.0  0.39358  0.54429  0.67141  1.0000
  C   C202      1.0  0.40149  0.56551  0.75179  1.0000
  C   C203      1.0  0.43374  0.55664  0.76394  1.0000
  C   C204      1.0  0.53596  0.39652  0.72024  1.0000
  C   C205      1.0  0.54877  0.43086  0.62282  1.0000
  C   C206      1.0  0.55362  0.40043  0.62441  1.0000
  C   C207      1.0  0.50724  0.45510  0.80356  1.0000
  C   C208      1.0  0.51230  0.42453  0.80873  1.0000
  C   C209      1.0  0.01506  0.96645  0.72190  1.0000
  C   C210      1.0  0.00268  0.95469  0.80800  1.0000
  C   C211      1.0  0.01539  0.92110  0.80200  1.0000
  C   C212      1.0  0.04168  0.89760  0.70897  1.0000
  C   C213      1.0  0.05300  0.90964  0.61817  1.0000
  C   C214      1.0  0.04002  0.94301  0.62417  1.0000
  C   C215      1.0  0.44559  0.67119  0.66127  1.0000
  C   C216      1.0  0.55002  0.34414  0.62515  1.0000
  C   C217      1.0  0.15966  0.93966  0.73446  1.0000
  C   C218      1.0  0.82447  0.07939  0.81022  1.0000
  C   C219      1.0  0.35474  0.81293  0.67994  1.0000
  C   C220      1.0  0.63110  0.20307  0.65963  1.0000
  C   C221      1.0  0.32046  0.83210  0.69636  1.0000
  C   C222      1.0  0.66530  0.18450  0.69208  1.0000
  C   C223      1.0  0.30136  0.86692  0.69822  1.0000
  C   C224      1.0  0.68326  0.15021  0.70207  1.0000
  C   C225      1.0  0.31746  0.88214  0.67944  1.0000
  C   C226      1.0  0.66638  0.13470  0.68422  1.0000
  C   C227      1.0  0.35165  0.86341  0.66298  1.0000
  C   C228      1.0  0.63196  0.15299  0.65688  1.0000
  C   C229      1.0  0.36986  0.82917  0.66627  1.0000
  C   C230      1.0  0.61500  0.18689  0.64216  1.0000
  C   C231      1.0  0.61283  0.13820  0.64622  1.0000
  C   C232      1.0  0.26515  0.88689  0.71520  1.0000
  C   C233      1.0  0.37625  0.77643  0.67296  1.0000
  C   C234      1.0  0.61126  0.23908  0.64688  1.0000
  C   C235      1.0  0.37120  0.75797  0.75633  1.0000
  C   C236      1.0  0.61707  0.26009  0.74473  1.0000
  C   C237      1.0  0.39380  0.72383  0.75505  1.0000
  C   C238      1.0  0.59652  0.29419  0.73992  1.0000
  C   C239      1.0  0.42180  0.70707  0.66826  1.0000
  C   C240      1.0  0.56997  0.30837  0.63496  1.0000
  C   C241      1.0  0.42600  0.72528  0.57941  1.0000
  C   C242      1.0  0.56482  0.28743  0.53330  1.0000
  C   C243      1.0  0.40388  0.75935  0.58342  1.0000
  C   C244      1.0  0.58490  0.25335  0.54078  1.0000
  C   C245      1.0  0.25008  0.87369  0.77131  1.0000
  C   C246      1.0  0.21593  0.89137  0.77672  1.0000
  C   C247      1.0  0.19517  0.92357  0.73100  1.0000
  C   C248      1.0  0.21007  0.93763  0.68153  1.0000
  C   C249      1.0  0.24418  0.91947  0.67225  1.0000
  C   C250      1.0  0.62510  0.10623  0.57733  1.0000
  C   C251      1.0  0.60618  0.09329  0.56665  1.0000
  C   C252      1.0  0.57427  0.11182  0.62265  1.0000
  C   C253      1.0  0.56191  0.14382  0.69201  1.0000
  C   C254      1.0  0.58100  0.15653  0.70377  1.0000
  C   C255      1.0  0.42320  0.91810  0.57159  1.0000
  C   C256      1.0  0.55656  0.09606  0.61364  1.0000
  C   C257      1.0  0.49962  0.04295  0.66792  1.0000
  C   C258      1.0  0.49678  0.01451  0.66627  1.0000
  C   C259      1.0  0.46870  0.01529  0.66657  1.0000
  C   C260      1.0  0.53041  0.98309  0.66068  1.0000
  C   C261      1.0  0.47744  0.07288  0.60231  1.0000
  C   C262      1.0  0.48533  0.09573  0.59610  1.0000
  C   C263      1.0  0.51605  0.08932  0.65345  1.0000
  C   C264      1.0  0.53712  0.06069  0.72824  1.0000
  C   C265      1.0  0.52909  0.03839  0.73478  1.0000
  C   C266      1.0  0.59948  0.93764  0.67248  1.0000
  C   C267      1.0  0.54917  0.97729  0.54146  1.0000
  C   C268      1.0  0.58320  0.95542  0.54759  1.0000
  C   C269      1.0  0.54614  0.96296  0.77753  1.0000
  C   C270      1.0  0.58033  0.94017  0.78320  1.0000
  C   C271      1.0  0.03879  0.99838  0.74101  1.0000
  C   C272      1.0  0.06486  0.97523  0.83130  1.0000
  C   C273      1.0  0.09658  0.96725  0.82817  1.0000
  C   C274      1.0  0.10428  0.98092  0.72801  1.0000
  C   C275      1.0  0.07802  0.00598  0.64556  1.0000
  C   C276      1.0  0.04586  0.01464  0.65348  1.0000
  C   C277      1.0  0.65192  0.90646  0.57970  1.0000
  C   C278      1.0  0.31103  0.11393  0.57567  1.0000
  C   C279      1.0  0.90454  0.91897  0.94734  1.0000
  C   C280      1.0  0.08292  0.08744  0.91777  1.0000
  C   C281      1.0  0.78930  0.85706  0.61465  1.0000
  C   C282      1.0  0.17739  0.15515  0.61691  1.0000
  C   C283      1.0  0.80426  0.87378  0.66839  1.0000
  C   C284      1.0  0.16487  0.13752  0.64978  1.0000
  C   C285      1.0  0.83865  0.85617  0.69532  1.0000
  C   C286      1.0  0.13184  0.15405  0.68855  1.0000
  C   C287      1.0  0.85802  0.82151  0.67033  1.0000
  C   C288      1.0  0.11101  0.18888  0.69476  1.0000
  C   C289      1.0  0.84351  0.80422  0.62070  1.0000
  C   C290      1.0  0.12352  0.20693  0.66854  1.0000
  C   C291      1.0  0.80938  0.82247  0.59027  1.0000
  C   C292      1.0  0.15625  0.18969  0.62731  1.0000
  C   C293      1.0  0.10653  0.24327  0.69408  1.0000
  C   C294      1.0  0.21216  0.14038  0.58629  1.0000
  C   C295      1.0  0.23846  0.11260  0.65422  1.0000
  C   C296      1.0  0.27072  0.10364  0.64940  1.0000
  C   C297      1.0  0.27770  0.12168  0.57354  1.0000
  C   C298      1.0  0.25189  0.14738  0.49319  1.0000
  C   C299      1.0  0.21972  0.15674  0.50143  1.0000
  C   C300      1.0  0.07620  0.26644  0.62622  1.0000
  C   C301      1.0  0.06503  0.29974  0.63851  1.0000
  C   C302      1.0  0.08421  0.31025  0.71619  1.0000
  C   C303      1.0  0.11351  0.28741  0.79203  1.0000
  C   C304      1.0  0.12426  0.25456  0.78180  1.0000
  C   C305      1.0  0.91822  0.66313  0.62639  1.0000
  C   C306      1.0  0.07427  0.34437  0.71918  1.0000
  C   C307      1.0  0.04543  0.45566  0.77933  1.0000
  C   C308      1.0  0.98179  0.55046  0.74248  1.0000
  C   C309      1.0  0.01566  0.48992  0.76238  1.0000
  C   C310      1.0  0.01416  0.51822  0.75788  1.0000
  C   C311      1.0  0.98593  0.48874  0.75074  1.0000
  C   C312      1.0  0.06942  0.43592  0.67293  1.0000
  C   C313      1.0  0.95967  0.55558  0.62158  1.0000
  C   C314      1.0  0.08795  0.40141  0.66640  1.0000
  C   C315      1.0  0.93264  0.58717  0.59327  1.0000
  C   C316      1.0  0.08200  0.38613  0.76462  1.0000
  C   C317      1.0  0.92863  0.61464  0.68251  1.0000
  C   C318      1.0  0.06133  0.40553  0.88307  1.0000
  C   C319      1.0  0.94894  0.60962  0.81145  1.0000
  C   C320      1.0  0.04362  0.43969  0.89008  1.0000
  C   C321      1.0  0.97480  0.57787  0.84238  1.0000
  C   C322      1.0  0.93752  0.47506  0.75577  1.0000
  C   C323      1.0  0.98898  0.46090  0.66800  1.0000
  C   C324      1.0  0.96527  0.45432  0.66840  1.0000
  C   C325      1.0  0.95682  0.51087  0.82820  1.0000
  C   C326      1.0  0.93322  0.50397  0.83260  1.0000
  C   C327      1.0  0.00721  0.00064  0.73612  1.0000
  C   C328      1.0  0.97656  0.03014  0.74201  1.0000
  N   N1        1.0  0.94341  0.13811  0.22312  1.0000
  N   N2        1.0  0.05839  0.83950  0.21071  1.0000
  N   N3        1.0  0.35015  0.54022  0.17269  1.0000
  N   N4        1.0  0.64370  0.44512  0.21735  1.0000
  N   N5        1.0  0.44508  0.64211  0.25421  1.0000
  N   N6        1.0  0.54948  0.34787  0.23756  1.0000
  N   N7        1.0  0.15205  0.94621  0.22352  1.0000
  N   N8        1.0  0.86082  0.03183  0.17262  1.0000
  N   N9        1.0  0.53643  0.09906  0.12652  1.0000
  N   N10       1.0  0.46996  0.89302  0.08797  1.0000
  N   N11       1.0  0.66396  0.90197  0.16170  1.0000
  N   N12       1.0  0.35913  0.07873  0.18342  1.0000
  N   N13       1.0  0.08421  0.34151  0.29123  1.0000
  N   N14       1.0  0.90996  0.64386  0.18850  1.0000
  N   N15       1.0  0.89580  0.45595  0.28622  1.0000
  N   N16       1.0  0.08948  0.53606  0.34470  1.0000
  N   N17       1.0  0.94661  0.15999  0.74529  1.0000
  N   N18       1.0  0.05937  0.86302  0.69817  1.0000
  N   N19       1.0  0.36067  0.55430  0.65826  1.0000
  N   N20       1.0  0.65293  0.45894  0.67656  1.0000
  N   N21       1.0  0.45140  0.65423  0.77025  1.0000
  N   N22       1.0  0.54597  0.36446  0.74002  1.0000
  N   N23       1.0  0.13708  0.97013  0.70974  1.0000
  N   N24       1.0  0.84633  0.05743  0.71715  1.0000
  N   N25       1.0  0.52584  0.11057  0.64257  1.0000
  N   N26       1.0  0.45156  0.90947  0.63481  1.0000
  N   N27       1.0  0.63380  0.92139  0.69382  1.0000
  N   N28       1.0  0.33137  0.10196  0.68844  1.0000
  N   N29       1.0  0.09542  0.35207  0.74578  1.0000
  N   N30       1.0  0.90568  0.64698  0.64291  1.0000
  N   N31       1.0  0.91829  0.46388  0.78152  1.0000
  N   N32       1.0  0.11137  0.54750  0.82874  1.0000
  O   O1        1.0  0.95480  0.90706  0.41621  1.0000
  O   O2        1.0  0.07510  0.07310  0.40764  1.0000
  O   O3        1.0  0.92895  0.91443  0.89661  1.0000
  O   O4        1.0  0.05362  0.09768  0.91449  1.0000
  C   C329      1.0  0.64251  0.10475  0.99166  1.0000
  C   C330      1.0  0.62744  0.11381  0.05946  1.0000
  C  Sn1       1.0  0.60036  0.13490  0.14841  1.0000
  C  Sn2       1.0  0.57864  0.12585  0.16969  1.0000
  C   C331      1.0  0.58457  0.09590  0.10145  1.0000
  C   C332      1.0  0.61173  0.07499  0.01263  1.0000
  H   H209      1.0  0.66354  0.08856  0.92300  1.0000
  O  Te1       1.0  0.59502  0.16465  0.21529  1.0000
  O  Te2       1.0  0.55139  0.14646  0.25808  1.0000
  H   H210      1.0  0.62552  0.07267  0.96023  1.0000
  Mg  Mg1       1.0  0.55452  0.18444  0.32569  1.0000
  C   C333      1.0  0.38769  0.06135  0.52108  1.0000
  C   C334      1.0  0.36798  0.08330  0.63711  1.0000
  C  Sn3       1.0  0.38250  0.08796  0.77006  1.0000
  C  Sn4       1.0  0.41740  0.07028  0.78682  1.0000
  C   C335      1.0  0.43690  0.04840  0.67004  1.0000
  C   C336      1.0  0.42211  0.04392  0.53749  1.0000
  H   H211      1.0  0.37625  0.05790  0.41850  1.0000
  O  Te3       1.0  0.36245  0.10997  0.88489  1.0000
  O  Te4       1.0  0.43256  0.07448  0.91848  1.0000
  H   H212      1.0  0.43737  0.02694  0.44764  1.0000
  Mg  Mg2       1.0  0.38533  0.08643  0.04304  1.0000
  C   C337      1.0  0.94748  0.09143  0.61965  1.0000
  C   C338      1.0  0.96952  0.06621  0.70985  1.0000
  C  Sn5       1.0  0.98676  0.07180  0.82870  1.0000
  C  Sn6       1.0  0.98179  0.10324  0.85755  1.0000
  C   C339      1.0  0.95967  0.12831  0.76672  1.0000
  C   C340      1.0  0.94255  0.12246  0.64805  1.0000
  H   H213      1.0  0.93423  0.08691  0.52788  1.0000
  O  Te5       1.0  0.00870  0.04632  0.91768  1.0000
  O  Te6       1.0  0.99869  0.10949  0.97563  1.0000
  H   H214      1.0  0.92548  0.14199  0.57830  1.0000
  Mg  Mg3       1.0  0.01660  0.04607  0.06537  1.0000
  C   C341      1.0  0.35819  0.00866  0.66871  1.0000
  C   C342      1.0  0.94241  0.02895  0.71619  1.0000
  C  Sn7       1.0  0.92093  0.06083  0.78331  1.0000
  C  Sn8       1.0  0.88771  0.07254  0.80314  1.0000
  C   C343      1.0  0.87682  0.05204  0.75535  1.0000
  C   C344      1.0  0.89851  0.02018  0.68828  1.0000
  H   H215      1.0  0.37498  0.98400  0.61689  1.0000
  O  Te7       1.0  0.93246  0.08078  0.83005  1.0000
  O  Te8       1.0  0.86572  0.10429  0.86993  1.0000
  H   H216      1.0  0.31680  0.00447  0.65162  1.0000
  Mg  Mg4       1.0  0.89309  0.12218  0.91506  1.0000
  C   C345      1.0  0.91350  0.72087  0.56999  1.0000
  C   C346      1.0  0.90382  0.70162  0.61210  1.0000
  C  Sn9       1.0  0.87118  0.71624  0.64813  1.0000
  C  Sn10      1.0  0.84785  0.75077  0.64173  1.0000
  C   C347      1.0  0.85778  0.76982  0.59936  1.0000
  C   C348      1.0  0.89050  0.75494  0.56359  1.0000
  H   H217      1.0  0.93881  0.70936  0.54223  1.0000
  O  Te9       1.0  0.86192  0.69664  0.69004  1.0000
  O  Te10      1.0  0.81507  0.76602  0.67710  1.0000
  H   H218      1.0  0.89799  0.76985  0.53089  1.0000
  Mg  Mg5       1.0  0.81439  0.72883  0.72792  1.0000
  C   C349      1.0  0.70488  0.91177  0.70548  1.0000
  C   C350      1.0  0.68773  0.90249  0.60255  1.0000
  C  Sn11      1.0  0.70459  0.87674  0.49204  1.0000
  C  Sn12      1.0  0.73927  0.86002  0.48474  1.0000
  C   C351      1.0  0.75621  0.86947  0.58829  1.0000
  C   C352      1.0  0.73909  0.89528  0.69839  1.0000
  H   H219      1.0  0.69165  0.93172  0.79072  1.0000
  O  Te11      1.0  0.68706  0.86779  0.39006  1.0000
  O  Te12      1.0  0.75673  0.83419  0.37546  1.0000
  H   H220      1.0  0.75238  0.90244  0.77812  1.0000
  Mg  Mg6       1.0  0.72187  0.83105  0.26159  1.0000
  C   C353      1.0  0.89409  0.21338  0.17143  1.0000
  C   C354      1.0  0.92347  0.19573  0.25624  1.0000
  C  Sn13      1.0  0.93437  0.21248  0.35296  1.0000
  C  Sn14      1.0  0.91545  0.24756  0.36479  1.0000
  C   C355      1.0  0.88607  0.26499  0.27954  1.0000
  C   C356      1.0  0.87540  0.24797  0.18307  1.0000
  H   H221      1.0  0.88582  0.20022  0.09685  1.0000
  O  Te13      1.0  0.96380  0.19446  0.43683  1.0000
  O  Te14      1.0  0.92576  0.26492  0.46062  1.0000
  H   H222      1.0  0.85263  0.26165  0.11750  1.0000
  Mg  Mg7       1.0  0.96757  0.22932  0.55175  1.0000
  C   C357      1.0  0.08061  0.14267  0.69750  1.0000
  C   C358      1.0  0.11095  0.13885  0.72710  1.0000
  C  Sn15      1.0  0.13529  0.11470  0.81675  1.0000
  C  Sn16      1.0  0.12907  0.09402  0.87771  1.0000
  C   C359      1.0  0.09865  0.09802  0.84735  1.0000
  C   C360      1.0  0.07446  0.12227  0.75754  1.0000
  H   H223      1.0  0.06190  0.16142  0.62795  1.0000
  O  Te15      1.0  0.16547  0.11123  0.84524  1.0000
  O  Te16      1.0  0.15297  0.06968  0.96762  1.0000
  H   H224      1.0  0.05098  0.12521  0.73456  1.0000
  Mg  Mg8       1.0  0.19022  0.07451  0.97437  1.0000
  C   C361      1.0  0.07128  0.40269  0.24734  1.0000
  C   C362      1.0  0.06660  0.38062  0.30100  1.0000
  C  Sn17      1.0  0.03553  0.39139  0.34557  1.0000
  C  Sn18      1.0  0.00870  0.42488  0.33609  1.0000
  C   C363      1.0  0.01363  0.44675  0.28215  1.0000
  C   C364      1.0  0.04482  0.43572  0.23789  1.0000
  H   H225      1.0  0.09540  0.39415  0.21301  1.0000
  O  Te17      1.0  0.03129  0.36903  0.39897  1.0000
  O  Te18      1.0  0.97739  0.43630  0.37983  1.0000
  H   H226      1.0  0.04843  0.45280  0.19626  1.0000
  Mg  Mg9       1.0  0.98395  0.39639  0.44514  1.0000
  C   C365      1.0  0.46262  0.58245  0.59223  1.0000
  C   C366      1.0  0.48633  0.55690  0.67749  1.0000
  C  Sn19      1.0  0.50103  0.56353  0.80450  1.0000
  C  Sn20      1.0  0.49175  0.59638  0.84669  1.0000
  C   C367      1.0  0.46799  0.62178  0.76071  1.0000
  C   C368      1.0  0.45345  0.61486  0.63380  1.0000
  H   H227      1.0  0.45135  0.57711  0.49408  1.0000
  O  Te19      1.0  0.52469  0.53771  0.88839  1.0000
  O  Te20      1.0  0.50604  0.60371  0.97314  1.0000
  H   H228      1.0  0.43507  0.63465  0.56786  1.0000
  Mg  Mg10      1.0  0.52776  0.53929  0.05136  1.0000
  C   C369      1.0  0.15071  0.56817  0.16954  1.0000
  C   C370      1.0  0.13646  0.59937  0.24799  1.0000
  C  Sn21      1.0  0.11068  0.61125  0.34170  1.0000
  C  Sn22      1.0  0.09901  0.59147  0.35696  1.0000
  C   C371      1.0  0.11345  0.56028  0.27808  1.0000
  C   C372      1.0  0.13922  0.54864  0.18457  1.0000
  H   H229      1.0  0.17066  0.55915  0.09725  1.0000
  O  Te21      1.0  0.09672  0.64248  0.41922  1.0000
  O  Te22      1.0  0.07329  0.60273  0.44991  1.0000
  H   H230      1.0  0.15026  0.52447  0.12392  1.0000
  Mg  Mg11      1.0  0.06225  0.64698  0.53229  1.0000
  C   C373      1.0  0.55962  0.49170  0.11127  1.0000
  C   C374      1.0  0.54611  0.47849  0.17816  1.0000
  C  Sn23      1.0  0.56521  0.45485  0.27910  1.0000
  C  Sn24      1.0  0.59844  0.44430  0.31351  1.0000
  C   C375      1.0  0.61171  0.45768  0.24608  1.0000
  C   C376      1.0  0.59239  0.48131  0.14520  1.0000
  H   H231      1.0  0.54466  0.50999  0.03328  1.0000
  O  Te23      1.0  0.55133  0.44190  0.34487  1.0000
  O  Te24      1.0  0.61807  0.42072  0.41404  1.0000
  H   H232      1.0  0.60285  0.49155  0.09350  1.0000
  Mg  Mg12      1.0  0.58800  0.41035  0.47479  1.0000
  C   C377      1.0  0.93448  0.46279  0.11243  1.0000
  C   C378      1.0  0.91397  0.47016  0.22623  1.0000
  C  Sn25      1.0  0.91399  0.48868  0.35670  1.0000
  C  Sn26      1.0  0.93495  0.50000  0.37322  1.0000
  C   C379      1.0  0.95536  0.49252  0.25868  1.0000
  C   C380      1.0  0.95515  0.47396  0.12860  1.0000
  H   H233      1.0  0.93430  0.44845  0.01175  1.0000
  O  Te25      1.0  0.89335  0.49581  0.46932  1.0000
  O  Te26      1.0  0.93545  0.51856  0.50243  1.0000
  H   H234      1.0  0.97102  0.46828  0.04047  1.0000
  Mg  Mg13      1.0  0.90286  0.52191  0.62457  1.0000
  C   C381      1.0  0.74833  0.42385  0.75583  1.0000
  C   C382      1.0  0.77405  0.39049  0.73091  1.0000
  C  Sn27      1.0  0.76743  0.36752  0.66446  1.0000
  C  Sn28      1.0  0.73442  0.37822  0.62227  1.0000
  C   C383      1.0  0.70886  0.41166  0.64758  1.0000
  C   C384      1.0  0.71576  0.43443  0.71419  1.0000
  H   H235      1.0  0.75366  0.44147  0.80729  1.0000
  O  Te27      1.0  0.79342  0.33428  0.64043  1.0000
  O  Te28      1.0  0.72711  0.35579  0.55561  1.0000
  H   H236      1.0  0.69585  0.46026  0.73338  1.0000
  Mg  Mg14      1.0  0.77097  0.31312  0.54604  1.0000
  C   C385      1.0  0.05278  0.55764  0.70039  1.0000
  C   C386      1.0  0.08326  0.54184  0.77865  1.0000
  C  Sn29      1.0  0.09481  0.51310  0.84491  1.0000
  C  Sn30      1.0  0.07545  0.49998  0.83237  1.0000
  C   C387      1.0  0.04501  0.51597  0.75376  1.0000
  C   C388      1.0  0.03368  0.54472  0.68792  1.0000
  H   H237      1.0  0.04402  0.57988  0.64938  1.0000
  O  Te29      1.0  0.12531  0.49763  0.92274  1.0000
  O  Te30      1.0  0.08642  0.47128  0.89747  1.0000
  H   H238      1.0  0.01009  0.55694  0.62726  1.0000
  Mg  Mg15      1.0  0.12963  0.45913  0.99209  1.0000
  C   C389      1.0  0.50042  0.07063  0.03490  1.0000
  C   C390      1.0  0.51623  0.08199  0.13494  1.0000
  C  Sn31      1.0  0.53444  0.06481  0.25764  1.0000
  C  Sn32      1.0  0.53684  0.03572  0.28028  1.0000
  C   C391      1.0  0.52096  0.02455  0.17950  1.0000
  C   C392      1.0  0.50279  0.04194  0.05712  1.0000
  H   H239      1.0  0.49575  0.10489  0.94016  1.0000
  O  Te31      1.0  0.55006  0.07651  0.35654  1.0000
  O  Te32      1.0  0.55490  0.01807  0.40196  1.0000
  H   H240      1.0  0.49994  0.05394  0.97962  1.0000
  Mg  Mg16      1.0  0.57179  0.04387  0.50575  1.0000
  C   C393      1.0  0.74051  0.13959  0.87664  1.0000
  C   C394      1.0  0.72258  0.13548  0.75634  1.0000
  C  Sn33      1.0  0.73874  0.10883  0.64872  1.0000
  C  Sn34      1.0  0.77350  0.08592  0.66211  1.0000
  C   C395      1.0  0.79122  0.09024  0.78294  1.0000
  C   C396      1.0  0.77480  0.11700  0.88997  1.0000
  H   H241      1.0  0.72781  0.16028  0.95950  1.0000
  O  Te33      1.0  0.72045  0.10510  0.52920  1.0000
  O  Te34      1.0  0.79028  0.05907  0.55618  1.0000
  H   H242      1.0  0.78868  0.12016  0.98315  1.0000
  Mg  Mg17      1.0  0.75450  0.06454  0.41339  1.0000
  C   C397      1.0  0.06095  0.88740  0.10787  1.0000
  C   C398      1.0  0.04991  0.87462  0.19405  1.0000
  C  Sn35      1.0  0.02504  0.89566  0.29394  1.0000
  C  Sn36      1.0  0.01101  0.93013  0.30754  1.0000
  C   C399      1.0  0.02221  0.94267  0.22075  1.0000
  C   C400      1.0  0.04712  0.92140  0.12118  1.0000
  H   H243      1.0  0.08021  0.87095  0.03077  1.0000
  O  Te35      1.0  0.01430  0.88248  0.37922  1.0000
  O  Te36      1.0  0.98611  0.95171  0.40647  1.0000
  H   H244      1.0  0.05565  0.93130  0.05440  1.0000
  Mg  Mg18      1.0  0.97978  0.92191  0.49851  1.0000
  C   C401      1.0  0.27450  0.08661  0.22992  1.0000
  C   C402      1.0  0.24508  0.11036  0.15944  1.0000
  C  Sn37      1.0  0.24576  0.12586  0.04482  1.0000
  C  Sn38      1.0  0.27649  0.11738  0.00015  1.0000
  C   C403      1.0  0.30578  0.09358  0.07129  1.0000
  C   C404      1.0  0.30482  0.07823  0.18589  1.0000
  H   H245      1.0  0.27376  0.07472  0.31854  1.0000
  O  Te37      1.0  0.22551  0.17035  0.97562  1.0000
  O  Te38      1.0  0.28725  0.15330  0.88587  1.0000
  H   H246      1.0  0.32760  0.05983  0.24038  1.0000
  Mg  Mg19      1.0  0.24019  0.18407  0.82556  1.0000
  C   C405      1.0  0.60845  0.45036  0.79217  1.0000
  C   C406      1.0  0.61992  0.46293  0.70714  1.0000
  C  Sn39      1.0  0.59772  0.48908  0.62174  1.0000
  C  Sn40      1.0  0.56344  0.50285  0.62172  1.0000
  C   C407      1.0  0.55221  0.49011  0.70724  1.0000
  C   C408      1.0  0.57464  0.46394  0.79226  1.0000
  H   H247      1.0  0.62580  0.43012  0.85802  1.0000
  O  Te39      1.0  0.60960  0.50134  0.53738  1.0000
  O  Te40      1.0  0.54071  0.52901  0.53742  1.0000
  H   H248      1.0  0.56575  0.45422  0.85816  1.0000
  Mg  Mg20      1.0  0.56893  0.53719  0.44066  1.0000
  C   C409      1.0  0.90967  0.40533  0.83066  1.0000
  C   C410      1.0  0.90017  0.42647  0.72064  1.0000
  C  Sn41      1.0  0.87521  0.43147  0.61534  1.0000
  C  Sn42      1.0  0.85952  0.41499  0.62059  1.0000
  C   C411      1.0  0.86919  0.39391  0.73117  1.0000
  C   C412      1.0  0.89420  0.38907  0.83596  1.0000
  H   H249      1.0  0.92901  0.40160  0.91180  1.0000
  O  Te41      1.0  0.86603  0.45267  0.50613  1.0000
  O  Te42      1.0  0.83449  0.41955  0.51676  1.0000
  H   H250      1.0  0.90154  0.37272  0.92119  1.0000
  Mg  Mg21      1.0  0.83065  0.45087  0.38926  1.0000
  C   C413      1.0  0.86738  0.74111  0.22087  1.0000
  C   C414      1.0  0.88282  0.75592  0.18940  1.0000
  C  Sn43      1.0  0.91453  0.73654  0.13438  1.0000
  C  Sn44      1.0  0.93101  0.70170  0.11049  1.0000
  C   C415      1.0  0.91534  0.68712  0.14222  1.0000
  C   C416      1.0  0.88361  0.70674  0.19729  1.0000
  H   H251      1.0  0.84283  0.75629  0.26340  1.0000
  O  Te43      1.0  0.92960  0.75175  0.10357  1.0000
  O  Te44      1.0  0.96270  0.68175  0.05554  1.0000
  H   H252      1.0  0.87165  0.69526  0.22156  1.0000
  Mg  Mg22      1.0  0.97297  0.71402  0.03042  1.0000
  C   C417      1.0  0.24690  0.90944  0.12851  1.0000
  C   C418      1.0  0.27438  0.88444  0.20386  1.0000
  C  Sn45      1.0  0.27019  0.87124  0.31786  1.0000
  C  Sn46      1.0  0.23786  0.88333  0.35687  1.0000
  C   C419      1.0  0.21053  0.90834  0.28075  1.0000
  C   C420      1.0  0.21501  0.92138  0.16688  1.0000
  H   H253      1.0  0.25036  0.91953  0.04036  1.0000
  O  Te45      1.0  0.29792  0.84627  0.39204  1.0000
  O  Te46      1.0  0.23297  0.87057  0.47033  1.0000
  H   H254      1.0  0.19372  0.94073  0.10850  1.0000
  Mg  Mg23      1.0  0.27853  0.83679  0.53881  1.0000
  C   C421      1.0  0.41776  0.87340  0.71159  1.0000
  C   C422      1.0  0.41193  0.89400  0.60496  1.0000
  C  Sn47      1.0  0.38310  0.90761  0.51466  1.0000
  C  Sn48      1.0  0.35972  0.90041  0.53171  1.0000
  C   C423      1.0  0.36578  0.87979  0.63878  1.0000
  C   C424      1.0  0.39471  0.86630  0.72851  1.0000
  H   H255      1.0  0.44014  0.86298  0.78108  1.0000
  O  Te47      1.0  0.37767  0.92813  0.40865  1.0000
  O  Te48      1.0  0.33070  0.91369  0.44297  1.0000
  H   H256      1.0  0.39921  0.85037  0.81112  1.0000
  Mg  Mg24      1.0  0.33443  0.94028  0.31411  1.0000
  C   C425      1.0  0.89140  0.86517  0.69729  1.0000
  C   C426      1.0  0.86352  0.86878  0.74495  1.0000
  C  Sn49      1.0  0.84634  0.89167  0.86410  1.0000
  C  Sn50      1.0  0.85733  0.91127  0.93665  1.0000
  C   C427      1.0  0.88524  0.90749  0.88806  1.0000
  C   C428      1.0  0.90225  0.88451  0.76875  1.0000
  H   H257      1.0  0.90456  0.84740  0.60493  1.0000
  O  Te49      1.0  0.81854  0.89496  0.91031  1.0000
  O  Te50      1.0  0.83124  0.91353  0.05598  1.0000
  H   H258      1.0  0.92382  0.88173  0.73182  1.0000
  Mg  Mg25      1.0  0.79468  0.90894  0.07811  1.0000
  C   C429      1.0  0.41735  0.54316  0.30055  1.0000
  C   C430      1.0  0.44410  0.51759  0.21873  1.0000
  C  Sn51      1.0  0.43970  0.49799  0.10619  1.0000
  C  Sn52      1.0  0.40791  0.50417  0.07523  1.0000
  C   C431      1.0  0.38130  0.52982  0.15765  1.0000
  C   C432      1.0  0.38598  0.54928  0.27004  1.0000
  H   H259      1.0  0.42096  0.55822  0.38746  1.0000
  O  Te51      1.0  0.46669  0.47253  0.02555  1.0000
  O  Te52      1.0  0.41219  0.50578  0.96333  1.0000
  H   H260      1.0  0.36526  0.56908  0.33331  1.0000
  Mg  Mg26      1.0  0.45669  0.47395  0.88406  1.0000
  C   C433      1.0  0.07635  0.74815  0.40623  1.0000
  C   C434      1.0  0.10250  0.72449  0.31653  1.0000
  C  Sn53      1.0  0.11420  0.73433  0.21780  1.0000
  C  Sn54      1.0  0.09941  0.76850  0.20898  1.0000
  C   C435      1.0  0.07328  0.79198  0.29926  1.0000
  C   C436      1.0  0.06176  0.78186  0.39764  1.0000
  H   H261      1.0  0.06744  0.74032  0.48241  1.0000
  O  Te53      1.0  0.14034  0.71036  0.12895  1.0000
  O  Te54      1.0  0.11063  0.77902  0.11130  1.0000
  H   H262      1.0  0.04152  0.80018  0.46715  1.0000
  Mg  Mg27      1.0  0.14690  0.73698  0.01314  1.0000
  C   C437      1.0  0.51314  0.92554  0.00408  1.0000
  C   C438      1.0  0.50392  0.95226  0.11067  1.0000
  C  Sn55      1.0  0.48543  0.95765  0.22948  1.0000
  C  Sn56      1.0  0.47602  0.93583  0.24152  1.0000
  C   C439      1.0  0.48538  0.90916  0.13437  1.0000
  C   C440      1.0  0.50389  0.90400  0.01591  1.0000
  H   H263      1.0  0.53684  0.94235  0.91246  1.0000
  O  Te55      1.0  0.47642  0.98447  0.33496  1.0000
  O  Te56      1.0  0.45755  0.94063  0.35917  1.0000
  H   H264      1.0  0.52041  0.90411  0.93346  1.0000
  Mg  Mg28      1.0  0.45121  0.98069  0.47499  1.0000
  C   C441      1.0  0.73303  0.89655  0.21294  1.0000
  C   C442      1.0  0.71717  0.88917  0.09364  1.0000
  C  Sn57      1.0  0.74466  0.88742  0.97542  1.0000
  C  Sn58      1.0  0.77929  0.87200  0.97699  1.0000
  C   C443      1.0  0.78555  0.85873  0.09690  1.0000
  C   C444      1.0  0.76718  0.88135  0.21461  1.0000
  H   H265      1.0  0.71882  0.91404  0.30406  1.0000
  O  Te57      1.0  0.72842  0.88034  0.85708  1.0000
  O  Te58      1.0  0.79799  0.84935  0.86030  1.0000
  H   H266      1.0  0.77947  0.88704  0.30700  1.0000
  Mg  Mg29      1.0  0.76462  0.84780  0.72390  1.0000
  C   C445      1.0  0.37864  0.91135  0.05799  1.0000
  C   C446      1.0  0.41136  0.89965  0.10163  1.0000
  C  Sn59      1.0  0.43246  0.86840  0.15336  1.0000
  C  Sn60      1.0  0.42051  0.84855  0.16138  1.0000
  C   C447      1.0  0.38774  0.86047  0.11736  1.0000
  C   C448      1.0  0.36684  0.89178  0.06581  1.0000
  H   H267      1.0  0.36248  0.93557  0.01803  1.0000
  O  Te59      1.0  0.46507  0.85709  0.19657  1.0000
  O  Te60      1.0  0.44106  0.81721  0.21260  1.0000
  H   H268      1.0  0.34152  0.90083  0.03194  1.0000
  Mg  Mg30      1.0  0.48355  0.81270  0.25877  1.0000
  C   C449      1.0  0.60632  0.96066  0.08116  1.0000
  C   C450      1.0  0.62630  0.92996  0.13886  1.0000
  C  Sn61      1.0  0.61205  0.91657  0.19823  1.0000
  C  Sn62      1.0  0.57716  0.93430  0.19968  1.0000
  C   C451      1.0  0.55739  0.96499  0.14160  1.0000
  C   C452      1.0  0.57191  0.97816  0.08250  1.0000
  H   H269      1.0  0.61755  0.97085  0.03536  1.0000
  O  Te61      1.0  0.63237  0.88587  0.25547  1.0000
  O  Te62      1.0  0.56227  0.92149  0.25830  1.0000
  H   H270      1.0  0.12953  0.00192  0.03775  1.0000
  Mg  Mg31      1.0  0.60044  0.87873  0.32335  1.0000
  C   C453      1.0  0.43310  0.98838  0.71675  1.0000
  C   C454      1.0  0.46079  0.98713  0.68440  1.0000
  C  Sn63      1.0  0.48844  0.95750  0.62645  1.0000
  C  Sn64      1.0  0.48830  0.92863  0.60049  1.0000
  C   C455      1.0  0.46047  0.93015  0.63313  1.0000
  C   C456      1.0  0.43294  0.95992  0.69113  1.0000
  H   H271      1.0  0.41179  0.01142  0.76155  1.0000
  O  Te63      1.0  0.51590  0.95669  0.59480  1.0000
  O  Te64      1.0  0.51560  0.89870  0.54261  1.0000
  H   H272      1.0  0.41150  0.96089  0.71607  1.0000
  Mg  Mg32      1.0  0.54716  0.91006  0.51740  1.0000
  C   C457      1.0  0.43322  0.01226  0.04672  1.0000
  C   C458      1.0  0.45763  0.01636  0.11465  1.0000
  C  Sn65      1.0  0.44902  0.04427  0.21236  1.0000
  C  Sn66      1.0  0.41532  0.06848  0.24243  1.0000
  C   C459      1.0  0.39108  0.06414  0.17398  1.0000
  C   C460      1.0  0.39997  0.03612  0.07636  1.0000
  H   H273      1.0  0.87638  0.01139  0.97124  1.0000
  O  Te65      1.0  0.47372  0.04799  0.27923  1.0000
  O  Te66      1.0  0.40602  0.09661  0.33967  1.0000
  H   H274      1.0  0.38106  0.03295  0.02385  1.0000
  Mg  Mg33      1.0  0.44870  0.09056  0.40353  1.0000
  C   C461      1.0  0.89361  0.37656  0.29702  1.0000
  C   C462      1.0  0.86775  0.37470  0.23013  1.0000
  C  Sn67      1.0  0.84535  0.39728  0.13002  1.0000
  C  Sn68      1.0  0.84898  0.42214  0.09643  1.0000
  C   C463      1.0  0.87495  0.42377  0.16386  1.0000
  C   C464      1.0  0.89722  0.40106  0.26391  1.0000
  H   H275      1.0  0.91085  0.35897  0.37437  1.0000
  O  Te67      1.0  0.81964  0.39508  0.06423  1.0000
  O  Te68      1.0  0.83632  0.46583  0.99674  1.0000
  H   H276      1.0  0.91726  0.40249  0.31561  1.0000
  Mg  Mg34      1.0  0.80529  0.45272  0.93562  1.0000
