data_image0
_chemical_formula_structural       H72C132N36C2Sn2C2HTe2HMgC2Sn2C2HTe2HMgC2Sn2C2HTe2HMgC2Sn2C2HTe2HMgC2Sn2C2HTe2HMgC2Sn2C2HTe2HMgC2Sn2C2HTe2HMgC2Sn2C2HTe2HMgC2Sn2C2HTe2HMgC2Sn2C2HTe2HMgC2Sn2C2HTe2HMgC2Sn2C2HTe2HMgC2Sn2C2HTe2HMgC2Sn2C2HTe2HMgC2Sn2C2HTe2HMgC2Sn2C2HTe2HMgC2Sn2C2HTe2HMgC2Sn2C2HTe2HMgC2Sn2C2HTe2HMgC2Sn2C2HTe2HMgC2Sn2C2HTe2HMgC2Sn2C2HTe2HMgC2Sn2C2HTe2HMgC2Sn2C2HTe2HMgC2Sn2C2HTe2HMgC2Sn2C2HTe2HMgC2Sn2C2HTe2HMgC2Sn2C2HTe2HMgC2Sn2C2HTe2HMgC2Sn2C2HTe2HMgC2Sn2C2HTe2HMgC2Sn2C2HTe2HMgC2Sn2C2HTe2HMgC2Sn2C2HTe2HMgC2Sn2C2HTe2HMgC2Sn2C2HTe2HMgC2Sn2C2HTe2HMgC2Sn2C2HTe2HMgC2Sn2C2HTe2HMgC2Sn2C2HTe2HMgC2Sn2C2HTe2HMgC2Sn2C2HTe2HMgC2Sn2C2HTe2HMgC2Sn2C2HTe2HMgC2Sn2C2HTe2HMgC2Sn2C2HTe2HMgC2Sn2C2HTe2HMgC2Sn2C2HTe2HMgC2Sn2C2HTe2HMgC2Sn2C2HTe2HMgC2Sn2C2HTe2HMgC2Sn2C2HTe2HMgC2Sn2C2HTe2HMgC2Sn2C2HTe2HMgC2Sn2C2HTe2HMgC2Sn2C2HTe2HMgC2Sn2C2HTe2HMgC2Sn2C2HTe2HMgC2Sn2C2HTe2HMgC2Sn2C2HTe2HMgC2Sn2C2HTe2HMgC2Sn2C2HTe2HMgC2Sn2C2HTe2HMgC2Sn2C2HTe2HMgC2Sn2C2HTe2HMgC2Sn2C2HTe2HMgC2Sn2C2HTe2HMgC2Sn2C2HTe2HMgC2Sn2C2HTe2HMgC2Sn2C2HTe2HMgC2Sn2C2HTe2HMgC2Sn2C2HTe2HMg
_chemical_formula_sum              "H216 C420 N36 Sn144 Te144 Mg72"
_cell_length_a       49.6612
_cell_length_b       49.5933
_cell_length_c       9.87929
_cell_angle_alpha    90.0571
_cell_angle_beta     89.7735
_cell_angle_gamma    120.112

_symmetry_space_group_name_H-M    'P1'
_space_group_IT_number       1

loop_
  _space_group_symop_operation_xyz
  'x, y, z'

loop_
  _atom_site_type_symbol
  _atom_site_label
  _atom_site_symmetry_multiplicity
  _atom_site_fract_x
  _atom_site_fract_y
  _atom_site_fract_z
  _atom_site_occupancy
  H   H1        1.0  0.32467  0.20789  0.26484  1.0000
  H   H2        1.0  0.79242  0.11783  0.26019  1.0000
  H   H3        1.0  0.88260  0.67499  0.27105  1.0000
  H   H4        1.0  0.67321  0.79241  0.26137  1.0000
  H   H5        1.0  0.20653  0.88238  0.26865  1.0000
  H   H6        1.0  0.11770  0.32568  0.24946  1.0000
  H   H7        1.0  0.31805  0.11806  0.26792  1.0000
  H   H8        1.0  0.88176  0.20186  0.26211  1.0000
  H   H9        1.0  0.79882  0.68013  0.26715  1.0000
  H   H10       1.0  0.68002  0.88228  0.27002  1.0000
  H   H11       1.0  0.11706  0.79858  0.28002  1.0000
  H   H12       1.0  0.20137  0.32017  0.26091  1.0000
  H   H13       1.0  0.40551  0.20064  0.35181  1.0000
  H   H14       1.0  0.79894  0.20568  0.35061  1.0000
  H   H15       1.0  0.79471  0.59293  0.35080  1.0000
  H   H16       1.0  0.59259  0.79960  0.35639  1.0000
  H   H17       1.0  0.20026  0.79370  0.33616  1.0000
  H   H18       1.0  0.20509  0.40701  0.34557  1.0000
  H   H19       1.0  0.45705  0.34923  0.46252  1.0000
  H   H20       1.0  0.65047  0.10647  0.46784  1.0000
  H   H21       1.0  0.89336  0.54341  0.45357  1.0000
  H   H22       1.0  0.54256  0.65023  0.45740  1.0000
  H   H23       1.0  0.34846  0.89110  0.45845  1.0000
  H   H24       1.0  0.10541  0.45553  0.45300  1.0000
  H   H25       1.0  0.17873  0.10693  0.06924  1.0000
  H   H26       1.0  0.88921  0.06870  0.07681  1.0000
  H   H27       1.0  0.93745  0.82286  0.13932  1.0000
  H   H28       1.0  0.81942  0.89152  0.06414  1.0000
  H   H29       1.0  0.10303  0.92405  0.06939  1.0000
  H   H30       1.0  0.06878  0.17940  0.06874  1.0000
  H   H31       1.0  0.41006  0.06016  0.35893  1.0000
  H   H32       1.0  0.93757  0.35137  0.36957  1.0000
  H   H33       1.0  0.64860  0.58782  0.32978  1.0000
  H   H34       1.0  0.58761  0.93995  0.36918  1.0000
  H   H35       1.0  0.06227  0.64845  0.38111  1.0000
  H   H36       1.0  0.34984  0.41061  0.37795  1.0000
  H   H37       1.0  0.32610  0.20617  0.77457  1.0000
  H   H38       1.0  0.79347  0.11780  0.77354  1.0000
  H   H39       1.0  0.88203  0.67414  0.77399  1.0000
  H   H40       1.0  0.67547  0.79284  0.76724  1.0000
  H   H41       1.0  0.20761  0.88249  0.77081  1.0000
  H   H42       1.0  0.11932  0.32596  0.76580  1.0000
  H   H43       1.0  0.31941  0.11646  0.79929  1.0000
  H   H44       1.0  0.88268  0.20208  0.78352  1.0000
  H   H45       1.0  0.79903  0.68065  0.80746  1.0000
  H   H46       1.0  0.68159  0.88244  0.78666  1.0000
  H   H47       1.0  0.11829  0.79849  0.79528  1.0000
  H   H48       1.0  0.20252  0.32004  0.79940  1.0000
  H   H49       1.0  0.40651  0.19967  0.87962  1.0000
  H   H50       1.0  0.79928  0.20533  0.86429  1.0000
  H   H51       1.0  0.79413  0.59228  0.86034  1.0000
  H   H52       1.0  0.59437  0.79907  0.86393  1.0000
  H   H53       1.0  0.20181  0.79593  0.87894  1.0000
  H   H54       1.0  0.20619  0.40740  0.86814  1.0000
  H   H55       1.0  0.45879  0.34912  0.96056  1.0000
  H   H56       1.0  0.65097  0.10874  0.96534  1.0000
  H   H57       1.0  0.89123  0.54056  0.94841  1.0000
  H   H58       1.0  0.54184  0.65029  0.95035  1.0000
  H   H59       1.0  0.35000  0.89384  0.96249  1.0000
  H   H60       1.0  0.10984  0.45986  0.94669  1.0000
  H   H61       1.0  0.18110  0.11065  0.58738  1.0000
  H   H62       1.0  0.88951  0.06866  0.58646  1.0000
  H   H63       1.0  0.92760  0.82015  0.58669  1.0000
  H   H64       1.0  0.82242  0.88721  0.60563  1.0000
  H   H65       1.0  0.11406  0.93478  0.60625  1.0000
  H   H66       1.0  0.07406  0.18098  0.57080  1.0000
  H   H67       1.0  0.41260  0.05974  0.88547  1.0000
  H   H68       1.0  0.93819  0.35142  0.88215  1.0000
  H   H69       1.0  0.64883  0.58577  0.89109  1.0000
  H   H70       1.0  0.58953  0.93921  0.89444  1.0000
  H   H71       1.0  0.06208  0.64968  0.89850  1.0000
  H   H72       1.0  0.35135  0.41376  0.91611  1.0000
  C   C1        1.0  0.98342  0.01736  0.19972  1.0000
  C   C2        1.0  0.98186  0.96706  0.20136  1.0000
  C   C3        1.0  0.03232  0.01585  0.20109  1.0000
  C   C4        1.0  0.01490  0.98266  0.20136  1.0000
  C   C5        1.0  0.01650  0.03311  0.20056  1.0000
  C   C6        1.0  0.96590  0.98419  0.20019  1.0000
  C   C7        1.0  0.44838  0.34079  0.35980  1.0000
  C   C8        1.0  0.65904  0.10630  0.36501  1.0000
  C   C9        1.0  0.89275  0.55180  0.35109  1.0000
  C   C10       1.0  0.55153  0.65903  0.35513  1.0000
  C   C11       1.0  0.34022  0.89291  0.35739  1.0000
  C   C12       1.0  0.10524  0.44699  0.34991  1.0000
  C   C13       1.0  0.18548  0.09990  0.16291  1.0000
  C   C14       1.0  0.89919  0.08583  0.15931  1.0000
  C   C15       1.0  0.91660  0.81493  0.20319  1.0000
  C   C16       1.0  0.81254  0.89874  0.15736  1.0000
  C   C17       1.0  0.09787  0.91235  0.16859  1.0000
  C   C18       1.0  0.08513  0.18650  0.15399  1.0000
  C   C19       1.0  0.36742  0.20814  0.30878  1.0000
  C   C20       1.0  0.79170  0.16005  0.30596  1.0000
  C   C21       1.0  0.84005  0.63166  0.30995  1.0000
  C   C22       1.0  0.63055  0.79214  0.30869  1.0000
  C   C23       1.0  0.20751  0.83982  0.30412  1.0000
  C   C24       1.0  0.15977  0.36869  0.29717  1.0000
  C   C25       1.0  0.33568  0.19380  0.27612  1.0000
  C   C26       1.0  0.80632  0.14299  0.27172  1.0000
  C   C27       1.0  0.85739  0.66362  0.28026  1.0000
  C   C28       1.0  0.66224  0.80651  0.27437  1.0000
  C   C29       1.0  0.19275  0.85714  0.27810  1.0000
  C   C30       1.0  0.14278  0.33696  0.26280  1.0000
  C   C31       1.0  0.31755  0.16121  0.26533  1.0000
  C   C32       1.0  0.83887  0.15772  0.25958  1.0000
  C   C33       1.0  0.84267  0.68144  0.27011  1.0000
  C   C34       1.0  0.68043  0.83909  0.26431  1.0000
  C   C35       1.0  0.16014  0.84249  0.27161  1.0000
  C   C36       1.0  0.15743  0.31904  0.25321  1.0000
  C   C37       1.0  0.33184  0.14315  0.28247  1.0000
  C   C38       1.0  0.85669  0.19018  0.27723  1.0000
  C   C39       1.0  0.81014  0.66648  0.28297  1.0000
  C   C40       1.0  0.66620  0.85717  0.28409  1.0000
  C   C41       1.0  0.14225  0.81003  0.28918  1.0000
  C   C42       1.0  0.18971  0.33360  0.27459  1.0000
  C   C43       1.0  0.36372  0.15701  0.31126  1.0000
  C   C44       1.0  0.84253  0.20787  0.30761  1.0000
  C   C45       1.0  0.79211  0.63437  0.30991  1.0000
  C   C46       1.0  0.63433  0.84331  0.31486  1.0000
  C   C47       1.0  0.15653  0.79210  0.30997  1.0000
  C   C48       1.0  0.20733  0.36540  0.30676  1.0000
  C   C49       1.0  0.38093  0.18947  0.32681  1.0000
  C   C50       1.0  0.81011  0.19234  0.32394  1.0000
  C   C51       1.0  0.80775  0.61763  0.32661  1.0000
  C   C52       1.0  0.61711  0.81080  0.32948  1.0000
  C   C53       1.0  0.18906  0.80738  0.31796  1.0000
  C   C54       1.0  0.19188  0.38245  0.31905  1.0000
  C   C55       1.0  0.42572  0.08541  0.34554  1.0000
  C   C56       1.0  0.91241  0.34167  0.35481  1.0000
  C   C57       1.0  0.65796  0.57184  0.33116  1.0000
  C   C58       1.0  0.57190  0.91457  0.36141  1.0000
  C   C59       1.0  0.08710  0.65826  0.35646  1.0000
  C   C60       1.0  0.34062  0.42647  0.36275  1.0000
  C   C61       1.0  0.51328  0.00033  0.31512  1.0000
  C   C62       1.0  0.99957  0.51401  0.30245  1.0000
  C   C63       1.0  0.48586  0.48599  0.31021  1.0000
  C   C64       1.0  0.48573  0.00020  0.31338  1.0000
  C   C65       1.0  0.99900  0.48619  0.30521  1.0000
  C   C66       1.0  0.51334  0.51362  0.30872  1.0000
  C   C67       1.0  0.98518  0.01785  0.69554  1.0000
  C   C68       1.0  0.98328  0.96719  0.69890  1.0000
  C   C69       1.0  0.03385  0.01613  0.69765  1.0000
  C   C70       1.0  0.01643  0.98304  0.70018  1.0000
  C   C71       1.0  0.01828  0.03359  0.69589  1.0000
  C   C72       1.0  0.96781  0.98477  0.69593  1.0000
  C   C73       1.0  0.44923  0.34031  0.85926  1.0000
  C   C74       1.0  0.65966  0.10776  0.86380  1.0000
  C   C75       1.0  0.89221  0.55055  0.84779  1.0000
  C   C76       1.0  0.55193  0.65885  0.84922  1.0000
  C   C77       1.0  0.34146  0.89338  0.85933  1.0000
  C   C78       1.0  0.10780  0.44895  0.84728  1.0000
  C   C79       1.0  0.18734  0.10057  0.67247  1.0000
  C   C80       1.0  0.90001  0.08586  0.66839  1.0000
  C   C81       1.0  0.91392  0.81365  0.68118  1.0000
  C   C82       1.0  0.81510  0.89872  0.68057  1.0000
  C   C83       1.0  0.10210  0.91589  0.68063  1.0000
  C   C84       1.0  0.08829  0.18728  0.66311  1.0000
  C   C85       1.0  0.36870  0.20692  0.82724  1.0000
  C   C86       1.0  0.79244  0.15987  0.81938  1.0000
  C   C87       1.0  0.83976  0.63097  0.81855  1.0000
  C   C88       1.0  0.63254  0.79198  0.81459  1.0000
  C   C89       1.0  0.20859  0.84077  0.82392  1.0000
  C   C90       1.0  0.16102  0.36901  0.81798  1.0000
  C   C91       1.0  0.33707  0.19222  0.79211  1.0000
  C   C92       1.0  0.80731  0.14295  0.78643  1.0000
  C   C93       1.0  0.85702  0.66304  0.79020  1.0000
  C   C94       1.0  0.66438  0.80678  0.78215  1.0000
  C   C95       1.0  0.19371  0.85750  0.78844  1.0000
  C   C96       1.0  0.14422  0.33717  0.78461  1.0000
  C   C97       1.0  0.31894  0.15953  0.78565  1.0000
  C   C98       1.0  0.83997  0.15787  0.77692  1.0000
  C   C99       1.0  0.84261  0.68128  0.78917  1.0000
  C   C100      1.0  0.68249  0.83949  0.77535  1.0000
  C   C101      1.0  0.16101  0.84264  0.78201  1.0000
  C   C102      1.0  0.15887  0.31916  0.78113  1.0000
  C   C103      1.0  0.33315  0.14163  0.81070  1.0000
  C   C104      1.0  0.85757  0.19027  0.79744  1.0000
  C   C105      1.0  0.81039  0.66679  0.81334  1.0000
  C   C106      1.0  0.66802  0.85725  0.79857  1.0000
  C   C107      1.0  0.14343  0.81041  0.80742  1.0000
  C   C108      1.0  0.19092  0.33364  0.80817  1.0000
  C   C109      1.0  0.36495  0.15577  0.84201  1.0000
  C   C110      1.0  0.84317  0.20780  0.82698  1.0000
  C   C111      1.0  0.79243  0.63451  0.83561  1.0000
  C   C112      1.0  0.63614  0.84299  0.82926  1.0000
  C   C113      1.0  0.15780  0.79310  0.84082  1.0000
  C   C114      1.0  0.20841  0.36562  0.83715  1.0000
  C   C115      1.0  0.38203  0.18835  0.85287  1.0000
  C   C116      1.0  0.81069  0.19211  0.83957  1.0000
  C   C117      1.0  0.80763  0.61717  0.84033  1.0000
  C   C118      1.0  0.61898  0.81042  0.83862  1.0000
  C   C119      1.0  0.19030  0.80884  0.85115  1.0000
  C   C120      1.0  0.19297  0.38272  0.84381  1.0000
  C   C121      1.0  0.42818  0.08510  0.87543  1.0000
  C   C122      1.0  0.91335  0.34189  0.85948  1.0000
  C   C123      1.0  0.65846  0.57061  0.86625  1.0000
  C   C124      1.0  0.57390  0.91414  0.87630  1.0000
  C   C125      1.0  0.08711  0.65923  0.87945  1.0000
  C   C126      1.0  0.34196  0.42898  0.88917  1.0000
  C   C127      1.0  0.51473  0.99993  0.81327  1.0000
  C   C128      1.0  0.00062  0.51458  0.80164  1.0000
  C   C129      1.0  0.48631  0.48564  0.81235  1.0000
  C   C130      1.0  0.48716  0.99985  0.81274  1.0000
  C   C131      1.0  0.00077  0.48709  0.80289  1.0000
  C   C132      1.0  0.51383  0.51336  0.81051  1.0000
  N   N1        1.0  0.16557  0.07938  0.24623  1.0000
  N   N2        1.0  0.92224  0.08939  0.23308  1.0000
  N   N3        1.0  0.90979  0.83416  0.26121  1.0000
  N   N4        1.0  0.83228  0.91954  0.23962  1.0000
  N   N5        1.0  0.07862  0.91323  0.25480  1.0000
  N   N6        1.0  0.08761  0.16688  0.23195  1.0000
  N   N7        1.0  0.54206  0.90295  0.35612  1.0000
  N   N8        1.0  0.09841  0.64021  0.33418  1.0000
  N   N9        1.0  0.35924  0.45615  0.34938  1.0000
  N   N10       1.0  0.45549  0.09688  0.33542  1.0000
  N   N11       1.0  0.90090  0.35984  0.34238  1.0000
  N   N12       1.0  0.63943  0.54197  0.33458  1.0000
  N   N13       1.0  0.64030  0.09390  0.26383  1.0000
  N   N14       1.0  0.90484  0.54548  0.24819  1.0000
  N   N15       1.0  0.45471  0.35973  0.25905  1.0000
  N   N16       1.0  0.35928  0.90678  0.25804  1.0000
  N   N17       1.0  0.09260  0.45335  0.24997  1.0000
  N   N18       1.0  0.54585  0.64043  0.25363  1.0000
  N   N19       1.0  0.16700  0.07800  0.74698  1.0000
  N   N20       1.0  0.92318  0.08907  0.74037  1.0000
  N   N21       1.0  0.91336  0.83395  0.76187  1.0000
  N   N22       1.0  0.83470  0.92308  0.74822  1.0000
  N   N23       1.0  0.07776  0.91138  0.74806  1.0000
  N   N24       1.0  0.08882  0.16695  0.74356  1.0000
  N   N25       1.0  0.54447  0.90308  0.85631  1.0000
  N   N26       1.0  0.09806  0.64092  0.85459  1.0000
  N   N27       1.0  0.36043  0.45805  0.86071  1.0000
  N   N28       1.0  0.45794  0.09681  0.86251  1.0000
  N   N29       1.0  0.90256  0.36032  0.83469  1.0000
  N   N30       1.0  0.64014  0.54142  0.83911  1.0000
  N   N31       1.0  0.64104  0.09453  0.76292  1.0000
  N   N32       1.0  0.90595  0.54591  0.74626  1.0000
  N   N33       1.0  0.45437  0.35894  0.75837  1.0000
  N   N34       1.0  0.36033  0.90565  0.75786  1.0000
  N   N35       1.0  0.09332  0.45300  0.74773  1.0000
  N   N36       1.0  0.54685  0.63995  0.74954  1.0000
  C   C133      1.0  0.95231  0.88725  0.10279  1.0000
  C   C134      1.0  0.93424  0.86930  0.21192  1.0000
  C  Sn1       1.0  0.92995  0.88365  0.32514  1.0000
  C  Sn2       1.0  0.94403  0.91660  0.32886  1.0000
  C   C135      1.0  0.96204  0.93435  0.21913  1.0000
  C   C136      1.0  0.96620  0.91975  0.10636  1.0000
  H   H73       1.0  0.95551  0.87596  0.01550  1.0000
  O  Te1       1.0  0.91183  0.86537  0.43331  1.0000
  O  Te2       1.0  0.94011  0.93154  0.44074  1.0000
  H   H74       1.0  0.98017  0.93365  0.02184  1.0000
  Mg  Mg1       1.0  0.91334  0.89654  0.56322  1.0000
  C   C137      1.0  0.11103  0.07151  0.10717  1.0000
  C   C138      1.0  0.13007  0.06858  0.20280  1.0000
  C  Sn3       1.0  0.11705  0.04561  0.30291  1.0000
  C  Sn4       1.0  0.08435  0.02523  0.30709  1.0000
  C   C139      1.0  0.06550  0.02833  0.21090  1.0000
  C   C140      1.0  0.07878  0.05140  0.11118  1.0000
  H   H75       1.0  0.12131  0.08934  0.02996  1.0000
  O  Te3       1.0  0.13641  0.04301  0.39771  1.0000
  O  Te4       1.0  0.07072  0.00206  0.40602  1.0000
  H   H76       1.0  0.06404  0.05365  0.03710  1.0000
  Mg  Mg2       1.0  0.10685  0.00777  0.51298  1.0000
  C   C141      1.0  0.96439  0.07330  0.32697  1.0000
  C   C142      1.0  0.94347  0.07405  0.23500  1.0000
  C  Sn5       1.0  0.93308  0.05380  0.12434  1.0000
  C  Sn6       1.0  0.94386  0.03243  0.10569  1.0000
  C   C143      1.0  0.96478  0.03185  0.19832  1.0000
  C   C144      1.0  0.97504  0.05222  0.30868  1.0000
  H   H77       1.0  0.97232  0.08904  0.41240  1.0000
  O  Te5       1.0  0.91218  0.05487  0.03339  1.0000
  O  Te6       1.0  0.93293  0.01167  0.99599  1.0000
  H   H78       1.0  0.99122  0.05161  0.37992  1.0000
  Mg  Mg3       1.0  0.90437  0.02200  0.89962  1.0000
  C   C145      1.0  0.07190  0.10860  0.32687  1.0000
  C   C146      1.0  0.07188  0.13016  0.23593  1.0000
  C  Sn7       1.0  0.05109  0.12004  0.12756  1.0000
  C  Sn8       1.0  0.02994  0.08772  0.11019  1.0000
  C   C147      1.0  0.03012  0.06634  0.20178  1.0000
  C   C148      1.0  0.05104  0.07672  0.30985  1.0000
  H   H79       1.0  0.08806  0.11663  0.41053  1.0000
  O  Te7       1.0  0.05140  0.14189  0.03761  1.0000
  O  Te8       1.0  0.00890  0.07697  0.00279  1.0000
  H   H80       1.0  0.05103  0.06003  0.38029  1.0000
  Mg  Mg4       1.0  0.01735  0.11553  0.90702  1.0000
  C   C149      1.0  0.89028  0.96658  0.31597  1.0000
  C   C150      1.0  0.86874  0.94184  0.23656  1.0000
  C  Sn9       1.0  0.87889  0.92831  0.13989  1.0000
  C  Sn10      1.0  0.91124  0.93979  0.12265  1.0000
  C   C151      1.0  0.93260  0.96453  0.20266  1.0000
  C   C152      1.0  0.92219  0.97791  0.29907  1.0000
  H   H81       1.0  0.88223  0.97692  0.39062  1.0000
  O  Te9       1.0  0.85705  0.90362  0.06136  1.0000
  O  Te10      1.0  0.92203  0.92669  0.02681  1.0000
  H   H82       1.0  0.93887  0.99705  0.36060  1.0000
  Mg  Mg5       1.0  0.88229  0.89322  0.94408  1.0000
  C   C153      1.0  0.03286  0.92622  0.33204  1.0000
  C   C154      1.0  0.05636  0.92745  0.24941  1.0000
  C  Sn11      1.0  0.06863  0.94892  0.14322  1.0000
  C  Sn12      1.0  0.05712  0.96953  0.11960  1.0000
  C   C155      1.0  0.03362  0.96814  0.20290  1.0000
  C   C156      1.0  0.02151  0.94655  0.30884  1.0000
  H   H83       1.0  0.02350  0.90954  0.41406  1.0000
  O  Te11      1.0  0.09208  0.94983  0.06160  1.0000
  O  Te12      1.0  0.06897  0.99123  0.01421  1.0000
  H   H84       1.0  0.00333  0.94562  0.37285  1.0000
  Mg  Mg6       1.0  0.09985  0.98322  0.93065  1.0000
  C   C157      1.0  0.39908  0.28819  0.22343  1.0000
  C   C158      1.0  0.42126  0.30489  0.32274  1.0000
  C  Sn13      1.0  0.42718  0.28915  0.42507  1.0000
  C  Sn14      1.0  0.41057  0.25608  0.42773  1.0000
  C   C159      1.0  0.38845  0.23959  0.32785  1.0000
  C   C160      1.0  0.38270  0.25557  0.22594  1.0000
  H   H85       1.0  0.39464  0.30055  0.14454  1.0000
  O  Te13      1.0  0.44941  0.30619  0.52354  1.0000
  O  Te14      1.0  0.41604  0.23976  0.52881  1.0000
  H   H86       1.0  0.36554  0.24264  0.14901  1.0000
  Mg  Mg7       1.0  0.44860  0.27339  0.64062  1.0000
  C   C161      1.0  0.73856  0.15598  0.44232  1.0000
  C   C162      1.0  0.75509  0.14741  0.35439  1.0000
  C  Sn15      1.0  0.73938  0.12449  0.25638  1.0000
  C  Sn16      1.0  0.70652  0.10993  0.24644  1.0000
  C   C163      1.0  0.69020  0.11869  0.33481  1.0000
  C   C164      1.0  0.70615  0.14164  0.43255  1.0000
  H   H87       1.0  0.75089  0.17375  0.51789  1.0000
  O  Te15      1.0  0.75625  0.11619  0.16938  1.0000
  O  Te16      1.0  0.69024  0.08697  0.14938  1.0000
  H   H88       1.0  0.69334  0.14829  0.50055  1.0000
  Mg  Mg8       1.0  0.72358  0.08365  0.05385  1.0000
  C   C165      1.0  0.88357  0.61299  0.21935  1.0000
  C   C166      1.0  0.85991  0.61302  0.29622  1.0000
  C  Sn17      1.0  0.84656  0.59242  0.40483  1.0000
  C  Sn18      1.0  0.85716  0.57142  0.43686  1.0000
  C   C167      1.0  0.88087  0.57159  0.35940  1.0000
  C   C168      1.0  0.89405  0.59230  0.25090  1.0000
  H   H89       1.0  0.89379  0.62903  0.13545  1.0000
  O  Te17      1.0  0.82293  0.59275  0.48055  1.0000
  O  Te18      1.0  0.84424  0.55059  0.54490  1.0000
  H   H90       1.0  0.91239  0.59229  0.19146  1.0000
  Mg  Mg9       1.0  0.81262  0.55990  0.61808  1.0000
  C   C169      1.0  0.58089  0.73825  0.43984  1.0000
  C   C170      1.0  0.60603  0.75527  0.35240  1.0000
  C  Sn19      1.0  0.61324  0.74006  0.25175  1.0000
  C  Sn20      1.0  0.59488  0.70720  0.23863  1.0000
  C   C171      1.0  0.56977  0.69039  0.32655  1.0000
  C   C172      1.0  0.56277  0.70584  0.42694  1.0000
  H   H91       1.0  0.57547  0.75021  0.51747  1.0000
  O  Te19      1.0  0.63844  0.75741  0.16527  1.0000
  O  Te20      1.0  0.60156  0.69141  0.13890  1.0000
  H   H92       1.0  0.54329  0.69266  0.49457  1.0000
  Mg  Mg10      1.0  0.63828  0.72531  0.04533  1.0000
  C   C173      1.0  0.27797  0.84976  0.44100  1.0000
  C   C174      1.0  0.30202  0.87268  0.36247  1.0000
  C  Sn21      1.0  0.29544  0.88809  0.26086  1.0000
  C  Sn22      1.0  0.26419  0.88035  0.23770  1.0000
  C   C175      1.0  0.24030  0.85740  0.31688  1.0000
  C   C176      1.0  0.24714  0.84212  0.41826  1.0000
  H   H93       1.0  0.28325  0.83795  0.51949  1.0000
  O  Te21      1.0  0.31975  0.91093  0.18331  1.0000
  O  Te22      1.0  0.25697  0.89539  0.13685  1.0000
  H   H94       1.0  0.22852  0.82438  0.47909  1.0000
  Mg  Mg11      1.0  0.29816  0.92487  0.05775  1.0000
  C   C177      1.0  0.14695  0.42708  0.44061  1.0000
  C   C178      1.0  0.12574  0.42939  0.35585  1.0000
  C  Sn23      1.0  0.11267  0.40907  0.24645  1.0000
  C  Sn24      1.0  0.12104  0.38603  0.22172  1.0000
  C   C179      1.0  0.14227  0.38390  0.30716  1.0000
  C   C180      1.0  0.15521  0.40435  0.41632  1.0000
  H   H95       1.0  0.15696  0.44290  0.52512  1.0000
  O  Te23      1.0  0.09151  0.41171  0.16274  1.0000
  O  Te24      1.0  0.10832  0.36542  0.11312  1.0000
  H   H96       1.0  0.17162  0.40254  0.48198  1.0000
  Mg  Mg12      1.0  0.08050  0.37826  0.02763  1.0000
  C   C181      1.0  0.23757  0.10457  0.30961  1.0000
  C   C182      1.0  0.22121  0.11282  0.21989  1.0000
  C  Sn25      1.0  0.23724  0.13781  0.13078  1.0000
  C  Sn26      1.0  0.27026  0.15482  0.13171  1.0000
  C   C183      1.0  0.28642  0.14637  0.22180  1.0000
  C   C184      1.0  0.27014  0.12132  0.31057  1.0000
  H   H97       1.0  0.22498  0.08518  0.37825  1.0000
  O  Te25      1.0  0.22053  0.14575  0.04183  1.0000
  O  Te26      1.0  0.28687  0.17990  0.04370  1.0000
  H   H98       1.0  0.28282  0.11493  0.37996  1.0000
  Mg  Mg13      1.0  0.25272  0.18149  0.94132  1.0000
  C   C185      1.0  0.88716  0.14340  0.31523  1.0000
  C   C186      1.0  0.86228  0.14270  0.24644  1.0000
  C  Sn27      1.0  0.84711  0.12096  0.14356  1.0000
  C  Sn28      1.0  0.85707  0.09955  0.10917  1.0000
  C   C187      1.0  0.88196  0.10042  0.17866  1.0000
  C   C188      1.0  0.89699  0.12228  0.28141  1.0000
  H   H99       1.0  0.89877  0.16030  0.39478  1.0000
  O  Te27      1.0  0.82230  0.12059  0.07582  1.0000
  O  Te28      1.0  0.84231  0.07757  0.00680  1.0000
  H   H100      1.0  0.91624  0.12280  0.33472  1.0000
  Mg  Mg14      1.0  0.80871  0.08601  0.94374  1.0000
  C   C189      1.0  0.86408  0.76086  0.32109  1.0000
  C   C190      1.0  0.89129  0.77848  0.24569  1.0000
  C  Sn29      1.0  0.90301  0.76370  0.16391  1.0000
  C  Sn30      1.0  0.88715  0.73067  0.15768  1.0000
  C   C191      1.0  0.85993  0.71325  0.23343  1.0000
  C   C192      1.0  0.84841  0.72828  0.31497  1.0000
  H   H101      1.0  0.85516  0.77248  0.38413  1.0000
  O  Te29      1.0  0.93023  0.78165  0.08927  1.0000
  O  Te30      1.0  0.89834  0.71530  0.07673  1.0000
  H   H102      1.0  0.82733  0.71463  0.37327  1.0000
  Mg  Mg15      1.0  0.93540  0.74969  0.99381  1.0000
  C   C193      1.0  0.76071  0.89515  0.30347  1.0000
  C   C194      1.0  0.77679  0.88601  0.21564  1.0000
  C  Sn31      1.0  0.76047  0.86055  0.12949  1.0000
  C  Sn32      1.0  0.72744  0.84399  0.13152  1.0000
  C   C195      1.0  0.71157  0.85333  0.21969  1.0000
  C   C196      1.0  0.72813  0.87884  0.30549  1.0000
  H   H103      1.0  0.77352  0.91490  0.36981  1.0000
  O  Te31      1.0  0.77690  0.85172  0.04241  1.0000
  O  Te32      1.0  0.71055  0.81846  0.04645  1.0000
  H   H104      1.0  0.71568  0.88592  0.37342  1.0000
  Mg  Mg16      1.0  0.74254  0.81512  0.94574  1.0000
  C   C197      1.0  0.14548  0.89779  0.10668  1.0000
  C   C198      1.0  0.11909  0.89530  0.16981  1.0000
  C  Sn33      1.0  0.10584  0.87569  0.28156  1.0000
  C  Sn34      1.0  0.11932  0.85828  0.33080  1.0000
  C   C199      1.0  0.14573  0.86095  0.26699  1.0000
  C   C200      1.0  0.15879  0.88064  0.15521  1.0000
  H   H105      1.0  0.15560  0.91304  0.02024  1.0000
  O  Te33      1.0  0.07947  0.87347  0.34341  1.0000
  O  Te34      1.0  0.10656  0.83851  0.44234  1.0000
  H   H106      1.0  0.17924  0.88258  0.10640  1.0000
  Mg  Mg17      1.0  0.07058  0.84337  0.49228  1.0000
  C   C201      1.0  0.13557  0.23916  0.28750  1.0000
  C   C202      1.0  0.10950  0.22252  0.20519  1.0000
  C  Sn35      1.0  0.09888  0.23831  0.12415  1.0000
  C  Sn36      1.0  0.11469  0.27137  0.12572  1.0000
  C   C203      1.0  0.14076  0.28780  0.20834  1.0000
  C   C204      1.0  0.15119  0.27177  0.28908  1.0000
  H   H107      1.0  0.14365  0.22676  0.34991  1.0000
  O  Te35      1.0  0.07279  0.22133  0.04254  1.0000
  O  Te36      1.0  0.10458  0.28774  0.04568  1.0000
  H   H108      1.0  0.17138  0.28466  0.35273  1.0000
  Mg  Mg18      1.0  0.06700  0.25392  0.95145  1.0000
  C   C205      1.0  0.42655  0.14229  0.28067  1.0000
  C   C206      1.0  0.41595  0.11273  0.33633  1.0000
  C  Sn37      1.0  0.38518  0.09488  0.38095  1.0000
  C  Sn38      1.0  0.36468  0.10689  0.36947  1.0000
  C   C207      1.0  0.37551  0.13648  0.31355  1.0000
  C   C208      1.0  0.40635  0.15415  0.26926  1.0000
  H   H109      1.0  0.45041  0.15596  0.24633  1.0000
  O  Te37      1.0  0.37497  0.06540  0.43636  1.0000
  O  Te38      1.0  0.33381  0.08954  0.41322  1.0000
  H   H110      1.0  0.41455  0.17702  0.22609  1.0000
  Mg  Mg19      1.0  0.33083  0.05062  0.48168  1.0000
  C   C209      1.0  0.85662  0.28540  0.28088  1.0000
  C   C210      1.0  0.88539  0.30440  0.34229  1.0000
  C  Sn39      1.0  0.90307  0.29160  0.38943  1.0000
  C  Sn40      1.0  0.89166  0.25919  0.37462  1.0000
  C   C211      1.0  0.86285  0.24039  0.31295  1.0000
  C   C212      1.0  0.84535  0.25343  0.26619  1.0000
  H   H111      1.0  0.84308  0.29549  0.24462  1.0000
  O  Te39      1.0  0.93176  0.31091  0.45059  1.0000
  O  Te40      1.0  0.90885  0.24580  0.42078  1.0000
  H   H112      1.0  0.82308  0.23872  0.21856  1.0000
  Mg  Mg20      1.0  0.94662  0.28175  0.49725  1.0000
  C   C213      1.0  0.73469  0.63530  0.33988  1.0000
  C   C214      1.0  0.75431  0.62272  0.33241  1.0000
  C  Sn41      1.0  0.74185  0.59068  0.31482  1.0000
  C  Sn42      1.0  0.70914  0.57092  0.30451  1.0000
  C   C215      1.0  0.68972  0.58374  0.31201  1.0000
  C   C216      1.0  0.70243  0.61584  0.32967  1.0000
  H   H113      1.0  0.74453  0.66013  0.35347  1.0000
  O  Te41      1.0  0.76178  0.57849  0.30761  1.0000
  O  Te42      1.0  0.69607  0.53882  0.28684  1.0000
  H   H114      1.0  0.68724  0.62557  0.33536  1.0000
  Mg  Mg21      1.0  0.73286  0.53325  0.28300  1.0000
  C   C217      1.0  0.62606  0.90917  0.39175  1.0000
  C   C218      1.0  0.59589  0.90096  0.35254  1.0000
  C  Sn43      1.0  0.57551  0.87097  0.30466  1.0000
  C  Sn44      1.0  0.58560  0.84884  0.29602  1.0000
  C   C219      1.0  0.61582  0.85728  0.33558  1.0000
  C   C220      1.0  0.63602  0.88736  0.38331  1.0000
  H   H115      1.0  0.64169  0.93244  0.42875  1.0000
  O  Te43      1.0  0.54545  0.86315  0.26586  1.0000
  O  Te44      1.0  0.56571  0.81870  0.24857  1.0000
  H   H116      1.0  0.65937  0.89371  0.41374  1.0000
  Mg  Mg22      1.0  0.52694  0.81917  0.20773  1.0000
  C   C221      1.0  0.13994  0.71428  0.25762  1.0000
  C   C222      1.0  0.11364  0.69550  0.33647  1.0000
  C  Sn45      1.0  0.09851  0.70862  0.40651  1.0000
  C  Sn46      1.0  0.10998  0.74115  0.39721  1.0000
  C   C223      1.0  0.13629  0.75973  0.31798  1.0000
  C   C224      1.0  0.15126  0.74636  0.24835  1.0000
  H   H117      1.0  0.15151  0.70393  0.20369  1.0000
  O  Te45      1.0  0.07227  0.68952  0.48487  1.0000
  O  Te46      1.0  0.09530  0.75486  0.46611  1.0000
  H   H118      1.0  0.17161  0.76090  0.18724  1.0000
  Mg  Mg23      1.0  0.06033  0.71911  0.55996  1.0000
  C   C225      1.0  0.28022  0.37349  0.40244  1.0000
  C   C226      1.0  0.30289  0.40300  0.35721  1.0000
  C  Sn47      1.0  0.29418  0.42312  0.29883  1.0000
  C  Sn48      1.0  0.26215  0.41346  0.28565  1.0000
  C   C227      1.0  0.23964  0.38390  0.33129  1.0000
  C   C228      1.0  0.24862  0.36395  0.38952  1.0000
  H   H119      1.0  0.28716  0.35806  0.44756  1.0000
  O  Te47      1.0  0.31713  0.45251  0.25413  1.0000
  O  Te48      1.0  0.25279  0.43310  0.22772  1.0000
  H   H120      1.0  0.23106  0.34111  0.42461  1.0000
  Mg  Mg24      1.0  0.29276  0.47093  0.18205  1.0000
  C   C229      1.0  0.54268  0.96754  0.21806  1.0000
  C   C230      1.0  0.52019  0.97095  0.28924  1.0000
  C  Sn49      1.0  0.50293  0.95003  0.39238  1.0000
  C  Sn50      1.0  0.50834  0.92528  0.42465  1.0000
  C   C231      1.0  0.53090  0.92209  0.35291  1.0000
  C   C232      1.0  0.54804  0.94314  0.24986  1.0000
  H   H121      1.0  0.55595  0.98384  0.13837  1.0000
  O  Te49      1.0  0.48054  0.95377  0.46245  1.0000
  O  Te50      1.0  0.49143  0.90405  0.52730  1.0000
  H   H122      1.0  0.56546  0.94051  0.19483  1.0000
  Mg  Mg25      1.0  0.46345  0.91887  0.59390  1.0000
  C   C233      1.0  0.03304  0.57618  0.20252  1.0000
  C   C234      1.0  0.02942  0.55023  0.27377  1.0000
  C  Sn51      1.0  0.05028  0.55384  0.37622  1.0000
  C  Sn52      1.0  0.07521  0.58403  0.40771  1.0000
  C   C235      1.0  0.07862  0.60985  0.33590  1.0000
  C   C236      1.0  0.05761  0.60596  0.23355  1.0000
  H   H123      1.0  0.01678  0.57318  0.12337  1.0000
  O  Te51      1.0  0.04633  0.52766  0.44638  1.0000
  O  Te52      1.0  0.09640  0.58831  0.50966  1.0000
  H   H124      1.0  0.06041  0.62606  0.17846  1.0000
  Mg  Mg26      1.0  0.08125  0.54543  0.57668  1.0000
  C   C237      1.0  0.42319  0.45402  0.21967  1.0000
  C   C238      1.0  0.44915  0.47778  0.28534  1.0000
  C  Sn53      1.0  0.44551  0.49625  0.38226  1.0000
  C  Sn54      1.0  0.41527  0.49077  0.41383  1.0000
  C   C239      1.0  0.38943  0.46693  0.34763  1.0000
  C   C240      1.0  0.39335  0.44860  0.25078  1.0000
  H   H125      1.0  0.42621  0.43983  0.14478  1.0000
  O  Te53      1.0  0.47170  0.51990  0.44688  1.0000
  O  Te54      1.0  0.41095  0.50888  0.51032  1.0000
  H   H126      1.0  0.37324  0.43019  0.20001  1.0000
  Mg  Mg27      1.0  0.45388  0.53833  0.57097  1.0000
  C   C241      1.0  0.50020  0.06231  0.40878  1.0000
  C   C242      1.0  0.48650  0.03452  0.33510  1.0000
  C  Sn55      1.0  0.46256  0.02797  0.24387  1.0000
  C  Sn56      1.0  0.45220  0.04970  0.22626  1.0000
  C   C243      1.0  0.46607  0.07744  0.30038  1.0000
  C   C244      1.0  0.49000  0.08375  0.39143  1.0000
  H   H127      1.0  0.51873  0.06720  0.47918  1.0000
  O  Te55      1.0  0.44912  0.00010  0.17111  1.0000
  O  Te56      1.0  0.42832  0.04375  0.13572  1.0000
  H   H128      1.0  0.50062  0.10528  0.44840  1.0000
  Mg  Mg28      1.0  0.41731  0.00252  0.05979  1.0000
  C   C245      1.0  0.95222  0.40765  0.20576  1.0000
  C   C246      1.0  0.92845  0.39330  0.30198  1.0000
  C  Sn57      1.0  0.92467  0.41105  0.40210  1.0000
  C  Sn58      1.0  0.94510  0.44379  0.40569  1.0000
  C   C247      1.0  0.96879  0.45793  0.30892  1.0000
  C   C248      1.0  0.97237  0.43993  0.20920  1.0000
  H   H129      1.0  0.95498  0.39373  0.12856  1.0000
  O  Te57      1.0  0.90081  0.39634  0.49748  1.0000
  O  Te58      1.0  0.94184  0.46209  0.50463  1.0000
  H   H130      1.0  0.99076  0.45105  0.13467  1.0000
  Mg  Mg29      1.0  0.90578  0.43128  0.61250  1.0000
  C   C249      1.0  0.57755  0.50515  0.42389  1.0000
  C   C250      1.0  0.60206  0.52378  0.33603  1.0000
  C  Sn59      1.0  0.59756  0.53980  0.23039  1.0000
  C  Sn60      1.0  0.56796  0.53709  0.21266  1.0000
  C   C251      1.0  0.54360  0.51841  0.30116  1.0000
  C   C252      1.0  0.54835  0.50247  0.40650  1.0000
  H   H131      1.0  0.58123  0.49283  0.50544  1.0000
  O  Te59      1.0  0.62229  0.55830  0.14351  1.0000
  O  Te60      1.0  0.56283  0.55286  0.10796  1.0000
  H   H132      1.0  0.52938  0.48807  0.47456  1.0000
  Mg  Mg30      1.0  0.60380  0.57523  0.01585  1.0000
  C   C253      1.0  0.59216  0.04490  0.40981  1.0000
  C   C254      1.0  0.60661  0.06915  0.31592  1.0000
  C  Sn61      1.0  0.58884  0.07430  0.22121  1.0000
  C  Sn62      1.0  0.55600  0.05477  0.22077  1.0000
  C   C255      1.0  0.54176  0.03058  0.31519  1.0000
  C   C256      1.0  0.55976  0.02563  0.40948  1.0000
  H   H133      1.0  0.60608  0.04108  0.48283  1.0000
  O  Te61      1.0  0.60365  0.09862  0.12808  1.0000
  O  Te62      1.0  0.53768  0.05939  0.12726  1.0000
  H   H134      1.0  0.54857  0.00687  0.48222  1.0000
  Mg  Mg31      1.0  0.56866  0.09561  0.02063  1.0000
  C   C257      1.0  0.96841  0.54565  0.39036  1.0000
  C   C258      1.0  0.97086  0.52187  0.32590  1.0000
  C  Sn63      1.0  0.94930  0.50355  0.22726  1.0000
  C  Sn64      1.0  0.92486  0.50920  0.19270  1.0000
  C   C259      1.0  0.92262  0.53306  0.25771  1.0000
  C   C260      1.0  0.94431  0.55124  0.35630  1.0000
  H   H135      1.0  0.98520  0.55973  0.46659  1.0000
  O  Te63      1.0  0.95209  0.47988  0.16389  1.0000
  O  Te64      1.0  0.90300  0.49125  0.09444  1.0000
  H   H136      1.0  0.94242  0.56966  0.40613  1.0000
  Mg  Mg32      1.0  0.91660  0.46170  0.03650  1.0000
  C   C261      1.0  0.49428  0.42247  0.18511  1.0000
  C   C262      1.0  0.47449  0.39709  0.26657  1.0000
  C  Sn65      1.0  0.45807  0.40086  0.37305  1.0000
  C  Sn66      1.0  0.46158  0.43063  0.39817  1.0000
  C   C263      1.0  0.48142  0.45588  0.31603  1.0000
  C   C264      1.0  0.49774  0.45184  0.20978  1.0000
  H   H137      1.0  0.50689  0.41935  0.10285  1.0000
  O  Te65      1.0  0.43841  0.37526  0.45349  1.0000
  O  Te66      1.0  0.44545  0.43506  0.50388  1.0000
  H   H138      1.0  0.51305  0.47149  0.14667  1.0000
  Mg  Mg33      1.0  0.42140  0.39301  0.58545  1.0000
  C   C265      1.0  0.42181  0.92933  0.18385  1.0000
  C   C266      1.0  0.39649  0.92369  0.26572  1.0000
  C  Sn67      1.0  0.40052  0.94334  0.37464  1.0000
  C  Sn68      1.0  0.43048  0.96911  0.40182  1.0000
  C   C267      1.0  0.45565  0.97456  0.31926  1.0000
  C   C268      1.0  0.45136  0.95474  0.21056  1.0000
  H   H139      1.0  0.41849  0.91400  0.09970  1.0000
  O  Te67      1.0  0.37498  0.93737  0.45544  1.0000
  O  Te68      1.0  0.43516  0.98913  0.50999  1.0000
  H   H140      1.0  0.47097  0.95912  0.14714  1.0000
  Mg  Mg34      1.0  0.39310  0.97130  0.59110  1.0000
  C   C269      1.0  0.07132  0.49486  0.18618  1.0000
  C   C270      1.0  0.07530  0.47319  0.26075  1.0000
  C  Sn69      1.0  0.05374  0.45522  0.36072  1.0000
  C  Sn70      1.0  0.02773  0.45907  0.38625  1.0000
  C   C271      1.0  0.02395  0.48080  0.31103  1.0000
  C   C272      1.0  0.04567  0.49867  0.21126  1.0000
  H   H141      1.0  0.08812  0.50867  0.10893  1.0000
  O  Te69      1.0  0.05807  0.43368  0.43431  1.0000
  O  Te70      1.0  0.00582  0.44141  0.48554  1.0000
  H   H142      1.0  0.04257  0.51543  0.15349  1.0000
  Mg  Mg35      1.0  0.02187  0.41507  0.55909  1.0000
  C   C273      1.0  0.54781  0.59296  0.39908  1.0000
  C   C274      1.0  0.53746  0.60693  0.30595  1.0000
  C  Sn71      1.0  0.51423  0.58868  0.21301  1.0000
  C  Sn72      1.0  0.50117  0.55584  0.21358  1.0000
  C   C275      1.0  0.51167  0.54209  0.30722  1.0000
  C   C276      1.0  0.53493  0.56057  0.39974  1.0000
  H   H143      1.0  0.56580  0.60726  0.47072  1.0000
  O  Te71      1.0  0.50417  0.60302  0.12063  1.0000
  O  Te72      1.0  0.47791  0.53705  0.12184  1.0000
  H   H144      1.0  0.54292  0.54975  0.47189  1.0000
  Mg  Mg36      1.0  0.47194  0.56747  0.01563  1.0000
  C   C277      1.0  0.97158  0.90550  0.62167  1.0000
  C   C278      1.0  0.96584  0.92769  0.68135  1.0000
  C  Sn73      1.0  0.94226  0.91869  0.77809  1.0000
  C  Sn74      1.0  0.92412  0.88685  0.81559  1.0000
  C   C279      1.0  0.93006  0.86482  0.75536  1.0000
  C   C280      1.0  0.95372  0.87409  0.65863  1.0000
  H   H145      1.0  0.98990  0.91267  0.54688  1.0000
  O  Te73      1.0  0.93682  0.94116  0.83668  1.0000
  O  Te74      1.0  0.90041  0.87720  0.91203  1.0000
  H   H146      1.0  0.95817  0.85690  0.61251  1.0000
  Mg  Mg37      1.0  0.90190  0.91654  0.96323  1.0000
  C   C281      1.0  0.09047  0.02639  0.82556  1.0000
  C   C282      1.0  0.07176  0.03137  0.73550  1.0000
  C  Sn75      1.0  0.08528  0.05297  0.63038  1.0000
  C  Sn76      1.0  0.11814  0.06986  0.61539  1.0000
  C   C283      1.0  0.13665  0.06469  0.70596  1.0000
  C   C284      1.0  0.12288  0.04303  0.81081  1.0000
  H   H147      1.0  0.07982  0.00961  0.90664  1.0000
  O  Te75      1.0  0.06625  0.05767  0.54133  1.0000
  O  Te76      1.0  0.13225  0.09158  0.51120  1.0000
  H   H148      1.0  0.13737  0.03916  0.88047  1.0000
  Mg  Mg38      1.0  0.09643  0.08979  0.41548  1.0000
  C   C285      1.0  0.96684  0.07412  0.82490  1.0000
  C   C286      1.0  0.94422  0.07352  0.73918  1.0000
  C  Sn77      1.0  0.93237  0.05217  0.63268  1.0000
  C  Sn78      1.0  0.94340  0.03105  0.61189  1.0000
  C   C287      1.0  0.96601  0.03182  0.69826  1.0000
  C   C288      1.0  0.97772  0.05329  0.80450  1.0000
  H   H149      1.0  0.97588  0.09072  0.90714  1.0000
  O  Te77      1.0  0.90980  0.05189  0.54795  1.0000
  O  Te78      1.0  0.93194  0.00946  0.50625  1.0000
  H   H150      1.0  0.99521  0.05373  0.87090  1.0000
  Mg  Mg39      1.0  0.90136  0.01814  0.41793  1.0000
  C   C289      1.0  0.07367  0.10812  0.82800  1.0000
  C   C290      1.0  0.07350  0.13029  0.74136  1.0000
  C  Sn79      1.0  0.05288  0.12088  0.63246  1.0000
  C  Sn80      1.0  0.03207  0.08867  0.61016  1.0000
  C   C291      1.0  0.03242  0.06668  0.69747  1.0000
  C   C292      1.0  0.05315  0.07635  0.80611  1.0000
  H   H151      1.0  0.08970  0.11560  0.91211  1.0000
  O  Te79      1.0  0.05302  0.14334  0.54685  1.0000
  O  Te80      1.0  0.01122  0.07863  0.50212  1.0000
  H   H152      1.0  0.05327  0.05918  0.87322  1.0000
  Mg  Mg40      1.0  0.02024  0.11810  0.41342  1.0000
  C   C293      1.0  0.88850  0.93446  0.59197  1.0000
  C   C294      1.0  0.87002  0.93424  0.69953  1.0000
  C  Sn81      1.0  0.88374  0.95311  0.81258  1.0000
  C  Sn82      1.0  0.91656  0.97256  0.81774  1.0000
  C   C295      1.0  0.93484  0.97263  0.70957  1.0000
  C   C296      1.0  0.92087  0.95364  0.59696  1.0000
  H   H153      1.0  0.87769  0.91978  0.50480  1.0000
  O  Te81      1.0  0.86494  0.95260  0.91918  1.0000
  O  Te82      1.0  0.93088  0.99167  0.92948  1.0000
  H   H154      1.0  0.93518  0.95384  0.51366  1.0000
  Mg  Mg41      1.0  0.89626  0.98305  0.04955  1.0000
  C   C297      1.0  0.06195  0.96709  0.60132  1.0000
  C   C298      1.0  0.03803  0.96552  0.68209  1.0000
  C  Sn83      1.0  0.02753  0.94599  0.79531  1.0000
  C  Sn84      1.0  0.04127  0.92773  0.82805  1.0000
  C   C299      1.0  0.06520  0.92948  0.74665  1.0000
  C   C300      1.0  0.07552  0.94909  0.63356  1.0000
  H   H155      1.0  0.06995  0.98227  0.51386  1.0000
  O  Te83      1.0  0.00361  0.94469  0.87490  1.0000
  O  Te84      1.0  0.03123  0.90802  0.94066  1.0000
  H   H156      1.0  0.09405  0.95032  0.57109  1.0000
  Mg  Mg42      1.0  0.99886  0.91457  0.01797  1.0000
  C   C301      1.0  0.41938  0.26132  0.94952  1.0000
  C   C302      1.0  0.39373  0.24408  0.86571  1.0000
  C  Sn85      1.0  0.38643  0.25892  0.76416  1.0000
  C  Sn86      1.0  0.40520  0.29163  0.74641  1.0000
  C   C303      1.0  0.43081  0.30866  0.83073  1.0000
  C   C304      1.0  0.43791  0.29358  0.93205  1.0000
  H   H157      1.0  0.42579  0.24991  0.02788  1.0000
  O  Te85      1.0  0.36072  0.24134  0.68135  1.0000
  O  Te86      1.0  0.39843  0.30705  0.64568  1.0000
  H   H158      1.0  0.45777  0.30693  0.99687  1.0000
  Mg  Mg43      1.0  0.36095  0.27297  0.55829  1.0000
  C   C305      1.0  0.71266  0.11086  0.73107  1.0000
  C   C306      1.0  0.69565  0.11639  0.82913  1.0000
  C  Sn87      1.0  0.71102  0.13833  0.93109  1.0000
  C  Sn88      1.0  0.74404  0.15501  0.93466  1.0000
  C   C307      1.0  0.76084  0.14932  0.83603  1.0000
  C   C308      1.0  0.74522  0.12731  0.73448  1.0000
  H   H159      1.0  0.70058  0.09384  0.65245  1.0000
  O  Te87      1.0  0.69459  0.14383  0.02831  1.0000
  O  Te88      1.0  0.76091  0.17735  0.03541  1.0000
  H   H160      1.0  0.75840  0.12304  0.65851  1.0000
  Mg  Mg44      1.0  0.72695  0.17624  0.14539  1.0000
  C   C309      1.0  0.88773  0.59983  0.71747  1.0000
  C   C310      1.0  0.88292  0.57747  0.81516  1.0000
  C  Sn89      1.0  0.86173  0.57104  0.92072  1.0000
  C  Sn90      1.0  0.84507  0.58734  0.92833  1.0000
  C   C311      1.0  0.85003  0.60965  0.83005  1.0000
  C   C312      1.0  0.87129  0.61590  0.72487  1.0000
  H   H161      1.0  0.90417  0.60466  0.63605  1.0000
  O  Te89      1.0  0.85814  0.54890  0.01751  1.0000
  O  Te90      1.0  0.82466  0.58162  0.03273  1.0000
  H   H162      1.0  0.87500  0.63320  0.64920  1.0000
  Mg  Mg45      1.0  0.82659  0.54900  0.14050  1.0000
  C   C313      1.0  0.58177  0.73773  0.93751  1.0000
  C   C314      1.0  0.60748  0.75496  0.85317  1.0000
  C  Sn91      1.0  0.61502  0.74007  0.75231  1.0000
  C  Sn92      1.0  0.59644  0.70732  0.73580  1.0000
  C   C315      1.0  0.57075  0.69029  0.82063  1.0000
  C   C316      1.0  0.56342  0.70543  0.92126  1.0000
  H   H163      1.0  0.57700  0.74970  0.01532  1.0000
  O  Te91      1.0  0.64080  0.75763  0.66896  1.0000
  O  Te92      1.0  0.60345  0.69184  0.63578  1.0000
  H   H164      1.0  0.54350  0.69208  0.98649  1.0000
  Mg  Mg46      1.0  0.64092  0.72594  0.54724  1.0000
  C   C317      1.0  0.28013  0.85395  0.96187  1.0000
  C   C318      1.0  0.30330  0.87317  0.86979  1.0000
  C  Sn93      1.0  0.29576  0.88476  0.75610  1.0000
  C  Sn94      1.0  0.26443  0.87691  0.73449  1.0000
  C   C319      1.0  0.24143  0.85768  0.82725  1.0000
  C   C320      1.0  0.24923  0.84621  0.94065  1.0000
  H   H165      1.0  0.28709  0.84535  0.04965  1.0000
  O  Te93      1.0  0.31919  0.90393  0.66510  1.0000
  O  Te94      1.0  0.25625  0.88818  0.62173  1.0000
  H   H166      1.0  0.23221  0.83161  0.01197  1.0000
  Mg  Mg47      1.0  0.29647  0.91350  0.52656  1.0000
  C   C321      1.0  0.11205  0.39908  0.71920  1.0000
  C   C322      1.0  0.11696  0.42183  0.81503  1.0000
  C  Sn95      1.0  0.13861  0.42903  0.91851  1.0000
  C  Sn96      1.0  0.15564  0.41312  0.92591  1.0000
  C   C323      1.0  0.15057  0.39040  0.82949  1.0000
  C   C324      1.0  0.12884  0.38338  0.72639  1.0000
  H   H167      1.0  0.09524  0.39365  0.63938  1.0000
  O  Te95      1.0  0.14414  0.45208  0.01345  1.0000
  O  Te96      1.0  0.17835  0.42012  0.02824  1.0000
  H   H168      1.0  0.12505  0.36577  0.65215  1.0000
  Mg  Mg48      1.0  0.17639  0.45303  0.13399  1.0000
  C   C325      1.0  0.23863  0.10215  0.81486  1.0000
  C   C326      1.0  0.22285  0.11165  0.72783  1.0000
  C  Sn97      1.0  0.23944  0.13777  0.64500  1.0000
  C  Sn98      1.0  0.27245  0.15462  0.64956  1.0000
  C   C327      1.0  0.28802  0.14491  0.73690  1.0000
  C   C328      1.0  0.27119  0.11875  0.81939  1.0000
  H   H169      1.0  0.22561  0.08190  0.87863  1.0000
  O  Te97      1.0  0.22330  0.14695  0.55867  1.0000
  O  Te98      1.0  0.28961  0.18080  0.56783  1.0000
  H   H170      1.0  0.28342  0.11138  0.88669  1.0000
  Mg  Mg49      1.0  0.25704  0.18416  0.46691  1.0000
  C   C329      1.0  0.84424  0.10988  0.62824  1.0000
  C   C330      1.0  0.85125  0.13278  0.72628  1.0000
  C  Sn99      1.0  0.87750  0.14299  0.80796  1.0000
  C  Sn100     1.0  0.89706  0.13000  0.79091  1.0000
  C   C331      1.0  0.88986  0.10711  0.69248  1.0000
  C   C332      1.0  0.86353  0.09706  0.61132  1.0000
  H   H171      1.0  0.82388  0.10211  0.56540  1.0000
  O  Te99      1.0  0.88416  0.16588  0.90546  1.0000
  O  Te100     1.0  0.92344  0.13978  0.87114  1.0000
  H   H172      1.0  0.85812  0.07934  0.53537  1.0000
  Mg  Mg50      1.0  0.92275  0.17157  0.99023  1.0000
  C   C333      1.0  0.86707  0.76176  0.83428  1.0000
  C   C334      1.0  0.89148  0.77796  0.74248  1.0000
  C  Sn101     1.0  0.89987  0.76173  0.65207  1.0000
  C  Sn102     1.0  0.88348  0.72866  0.65381  1.0000
  C   C335      1.0  0.85908  0.71266  0.74598  1.0000
  C   C336      1.0  0.85088  0.72914  0.83603  1.0000
  H   H173      1.0  0.86072  0.77450  0.90391  1.0000
  O  Te101     1.0  0.92433  0.77829  0.56106  1.0000
  O  Te102     1.0  0.89138  0.71185  0.56454  1.0000
  H   H174      1.0  0.83197  0.71658  0.90703  1.0000
  Mg  Mg51      1.0  0.92641  0.74492  0.45944  1.0000
  C   C337      1.0  0.73527  0.84319  0.63228  1.0000
  C   C338      1.0  0.71897  0.85051  0.72711  1.0000
  C  Sn103     1.0  0.73478  0.87678  0.80942  1.0000
  C  Sn104     1.0  0.76752  0.89605  0.79629  1.0000
  C   C339      1.0  0.78361  0.88854  0.70105  1.0000
  C   C340      1.0  0.76756  0.86219  0.61923  1.0000
  H   H175      1.0  0.72285  0.82282  0.56891  1.0000
  O  Te103     1.0  0.71813  0.88375  0.90367  1.0000
  O  Te104     1.0  0.78390  0.92246  0.87724  1.0000
  H   H176      1.0  0.78019  0.85655  0.54575  1.0000
  Mg  Mg52      1.0  0.75086  0.92223  0.99094  1.0000
  C   C341      1.0  0.11082  0.85518  0.82489  1.0000
  C   C342      1.0  0.13689  0.85689  0.76197  1.0000
  C  Sn105     1.0  0.15385  0.88016  0.66643  1.0000
  C  Sn106     1.0  0.14449  0.90208  0.63351  1.0000
  C   C343      1.0  0.11838  0.90017  0.69709  1.0000
  C   C344      1.0  0.10158  0.87680  0.79252  1.0000
  H   H177      1.0  0.09783  0.83710  0.89878  1.0000
  O  Te105     1.0  0.17983  0.88153  0.60449  1.0000
  O  Te106     1.0  0.16102  0.92557  0.53843  1.0000
  H   H178      1.0  0.08140  0.87548  0.84128  1.0000
  Mg  Mg53      1.0  0.19480  0.91780  0.48139  1.0000
  C   C345      1.0  0.14326  0.25581  0.83552  1.0000
  C   C346      1.0  0.14430  0.28067  0.76452  1.0000
  C  Sn107     1.0  0.12483  0.27504  0.65353  1.0000
  C  Sn108     1.0  0.10395  0.24392  0.61313  1.0000
  C   C347      1.0  0.10307  0.21920  0.68489  1.0000
  C   C348      1.0  0.12266  0.22510  0.79578  1.0000
  H   H179      1.0  0.15840  0.26037  0.92137  1.0000
  O  Te107     1.0  0.12617  0.30016  0.58369  1.0000
  O  Te108     1.0  0.08423  0.23763  0.50261  1.0000
  H   H180      1.0  0.12184  0.20584  0.85079  1.0000
  Mg  Mg54      1.0  0.09467  0.27969  0.43970  1.0000
  C   C349      1.0  0.37414  0.09038  0.91812  1.0000
  C   C350      1.0  0.40417  0.09874  0.87483  1.0000
  C  Sn109     1.0  0.42420  0.12875  0.82570  1.0000
  C  Sn110     1.0  0.41392  0.15075  0.81995  1.0000
  C   C351      1.0  0.38384  0.14216  0.86359  1.0000
  C   C352      1.0  0.36399  0.11207  0.91254  1.0000
  H   H181      1.0  0.35878  0.06711  0.95607  1.0000
  O  Te109     1.0  0.45411  0.13671  0.78281  1.0000
  O  Te110     1.0  0.43346  0.18090  0.77134  1.0000
  H   H182      1.0  0.34075  0.10561  0.94613  1.0000
  Mg  Mg55      1.0  0.47215  0.18066  0.72457  1.0000
  C   C353      1.0  0.89833  0.26493  0.90576  1.0000
  C   C354      1.0  0.86773  0.24537  0.86310  1.0000
  C  Sn111     1.0  0.85053  0.25798  0.80851  1.0000
  C  Sn112     1.0  0.86429  0.29080  0.79651  1.0000
  C   C355      1.0  0.89492  0.31016  0.83940  1.0000
  C   C356      1.0  0.91192  0.29730  0.89391  1.0000
  H   H183      1.0  0.91148  0.25497  0.94787  1.0000
  O  Te111     1.0  0.81998  0.23811  0.76643  1.0000
  O  Te112     1.0  0.84763  0.30402  0.74228  1.0000
  H   H184      1.0  0.93561  0.31244  0.92685  1.0000
  Mg  Mg56      1.0  0.80674  0.26725  0.69916  1.0000
  C   C357      1.0  0.71778  0.62255  0.93119  1.0000
  C   C358      1.0  0.69618  0.59458  0.86977  1.0000
  C  Sn113     1.0  0.70623  0.57687  0.79859  1.0000
  C  Sn114     1.0  0.73853  0.58740  0.78893  1.0000
  C   C359      1.0  0.75996  0.61540  0.85083  1.0000
  C   C360      1.0  0.74964  0.63294  0.92177  1.0000
  H   H185      1.0  0.70980  0.63612  0.98615  1.0000
  O  Te113     1.0  0.68434  0.54900  0.73778  1.0000
  O  Te114     1.0  0.74922  0.57015  0.71846  1.0000
  H   H186      1.0  0.76637  0.65458  0.96939  1.0000
  Mg  Mg57      1.0  0.71036  0.53370  0.65280  1.0000
  C   C361      1.0  0.58130  0.84823  0.80467  1.0000
  C   C362      1.0  0.61250  0.85773  0.82945  1.0000
  C  Sn115     1.0  0.63225  0.88699  0.88583  1.0000
  C  Sn116     1.0  0.62048  0.90704  0.91792  1.0000
  C   C363      1.0  0.58922  0.89731  0.89282  1.0000
  C   C364      1.0  0.56967  0.86799  0.83634  1.0000
  H   H187      1.0  0.56616  0.82554  0.76104  1.0000
  O  Te115     1.0  0.66337  0.89612  0.90988  1.0000
  O  Te116     1.0  0.63970  0.93640  0.97439  1.0000
  H   H188      1.0  0.54550  0.86063  0.81725  1.0000
  Mg  Mg58      1.0  0.68040  0.93834  0.98828  1.0000
  C   C365      1.0  0.09354  0.71876  0.93062  1.0000
  C   C366      1.0  0.10129  0.69693  0.88342  1.0000
  C  Sn117     1.0  0.13066  0.70680  0.82731  1.0000
  C  Sn118     1.0  0.15263  0.73913  0.81846  1.0000
  C   C367      1.0  0.14466  0.76078  0.86606  1.0000
  C   C368      1.0  0.11520  0.75065  0.92198  1.0000
  H   H189      1.0  0.07075  0.71093  0.97396  1.0000
  O  Te117     1.0  0.13802  0.68468  0.78058  1.0000
  O  Te118     1.0  0.18215  0.74963  0.76288  1.0000
  H   H190      1.0  0.10921  0.76756  0.95860  1.0000
  Mg  Mg59      1.0  0.18123  0.71050  0.71304  1.0000
  C   C369      1.0  0.26444  0.36714  0.92836  1.0000
  C   C370      1.0  0.24554  0.37828  0.87851  1.0000
  C  Sn119     1.0  0.25888  0.40808  0.82188  1.0000
  C  Sn120     1.0  0.29176  0.42701  0.81513  1.0000
  C   C371      1.0  0.31046  0.41565  0.86520  1.0000
  C   C372      1.0  0.29687  0.38580  0.92170  1.0000
  H   H191      1.0  0.25392  0.34404  0.97201  1.0000
  O  Te119     1.0  0.23966  0.41885  0.77260  1.0000
  O  Te120     1.0  0.30571  0.45688  0.75900  1.0000
  H   H192      1.0  0.31151  0.37717  0.96021  1.0000
  Mg  Mg60      1.0  0.26966  0.46117  0.70539  1.0000
  C   C373      1.0  0.50385  0.92547  0.92100  1.0000
  C   C374      1.0  0.52619  0.92204  0.84870  1.0000
  C  Sn121     1.0  0.54609  0.94512  0.75786  1.0000
  C  Sn122     1.0  0.54351  0.97211  0.73930  1.0000
  C   C375      1.0  0.52110  0.97532  0.81219  1.0000
  C   C376      1.0  0.50130  0.95208  0.90280  1.0000
  H   H193      1.0  0.48854  0.90749  0.99116  1.0000
  O  Te121     1.0  0.56827  0.94132  0.68640  1.0000
  O  Te122     1.0  0.56311  0.99554  0.64920  1.0000
  H   H194      1.0  0.48402  0.95475  0.95883  1.0000
  Mg  Mg61      1.0  0.58964  0.97969  0.57513  1.0000
  C   C377      1.0  0.06306  0.56034  0.89976  1.0000
  C   C378      1.0  0.03506  0.54774  0.82859  1.0000
  C  Sn123     1.0  0.02851  0.56687  0.74809  1.0000
  C  Sn124     1.0  0.05044  0.59920  0.73884  1.0000
  C   C379      1.0  0.07839  0.61158  0.81037  1.0000
  C   C380      1.0  0.08471  0.59223  0.89065  1.0000
  H   H195      1.0  0.06796  0.54536  0.96182  1.0000
  O  Te123     1.0  0.00042  0.55390  0.67769  1.0000
  O  Te124     1.0  0.04448  0.61885  0.65909  1.0000
  H   H196      1.0  0.10639  0.60198  0.94568  1.0000
  Mg  Mg62      1.0  0.00293  0.59021  0.58232  1.0000
  C   C381      1.0  0.42300  0.45371  0.72983  1.0000
  C   C382      1.0  0.44961  0.47794  0.78976  1.0000
  C  Sn125     1.0  0.44700  0.49765  0.88342  1.0000
  C  Sn126     1.0  0.41716  0.49294  0.91753  1.0000
  C   C383      1.0  0.39067  0.46861  0.85708  1.0000
  C   C384      1.0  0.39355  0.44904  0.76345  1.0000
  H   H197      1.0  0.42522  0.43855  0.65744  1.0000
  O  Te125     1.0  0.47383  0.52175  0.94231  1.0000
  O  Te126     1.0  0.41480  0.51254  0.01086  1.0000
  H   H198      1.0  0.37294  0.43027  0.71713  1.0000
  Mg  Mg63      1.0  0.45828  0.54219  0.06385  1.0000
  C   C385      1.0  0.45721  0.03244  0.72012  1.0000
  C   C386      1.0  0.48033  0.02944  0.78687  1.0000
  C  Sn127     1.0  0.49810  0.05057  0.88798  1.0000
  C  Sn128     1.0  0.49255  0.07514  0.92272  1.0000
  C   C387      1.0  0.46935  0.07793  0.85541  1.0000
  C   C388      1.0  0.45172  0.05665  0.75436  1.0000
  H   H199      1.0  0.44356  0.01597  0.64199  1.0000
  O  Te127     1.0  0.52112  0.04724  0.95361  1.0000
  O  Te128     1.0  0.51088  0.09685  0.02342  1.0000
  H   H200      1.0  0.43381  0.05897  0.70276  1.0000
  Mg  Mg64      1.0  0.53964  0.08257  0.08387  1.0000
  C   C389      1.0  0.93736  0.44060  0.89203  1.0000
  C   C390      1.0  0.96614  0.45368  0.82592  1.0000
  C  Sn129     1.0  0.97354  0.43514  0.74514  1.0000
  C  Sn130     1.0  0.95167  0.40293  0.73044  1.0000
  C   C391      1.0  0.92293  0.39007  0.79692  1.0000
  C   C392      1.0  0.91578  0.40883  0.87754  1.0000
  H   H201      1.0  0.93182  0.45512  0.95435  1.0000
  O  Te129     1.0  0.00240  0.44858  0.67985  1.0000
  O  Te130     1.0  0.95845  0.38387  0.65027  1.0000
  H   H202      1.0  0.89349  0.39870  0.92864  1.0000
  Mg  Mg65      1.0  0.00087  0.41300  0.58168  1.0000
  C   C393      1.0  0.55993  0.49617  0.89780  1.0000
  C   C394      1.0  0.54711  0.51205  0.83226  1.0000
  C  Sn131     1.0  0.56579  0.53793  0.75112  1.0000
  C  Sn132     1.0  0.59789  0.54804  0.73547  1.0000
  C   C395      1.0  0.61049  0.53197  0.80139  1.0000
  C   C396      1.0  0.59159  0.50611  0.88238  1.0000
  H   H203      1.0  0.54531  0.47615  0.96041  1.0000
  O  Te131     1.0  0.55261  0.55354  0.68640  1.0000
  O  Te132     1.0  0.61709  0.57383  0.65493  1.0000
  H   H204      1.0  0.60152  0.49380  0.93304  1.0000
  Mg  Mg66      1.0  0.58830  0.58743  0.58740  1.0000
  C   C397      1.0  0.57594  0.03460  0.91845  1.0000
  C   C398      1.0  0.55051  0.03024  0.84154  1.0000
  C  Sn133     1.0  0.55494  0.04939  0.73012  1.0000
  C  Sn134     1.0  0.58543  0.07331  0.69528  1.0000
  C   C399      1.0  0.61073  0.07747  0.77280  1.0000
  C   C400      1.0  0.60603  0.05819  0.88412  1.0000
  H   H205      1.0  0.57323  0.01993  0.00453  1.0000
  O  Te133     1.0  0.52927  0.04472  0.65441  1.0000
  O  Te134     1.0  0.59052  0.09277  0.58440  1.0000
  H   H206      1.0  0.62573  0.06156  0.94359  1.0000
  Mg  Mg67      1.0  0.54809  0.07723  0.51243  1.0000
  C   C401      1.0  0.96571  0.54135  0.90409  1.0000
  C   C402      1.0  0.97046  0.52037  0.82748  1.0000
  C  Sn135     1.0  0.95190  0.50578  0.71468  1.0000
  C  Sn136     1.0  0.92819  0.51236  0.67813  1.0000
  C   C403      1.0  0.92364  0.53339  0.75537  1.0000
  C   C404      1.0  0.94234  0.54786  0.86808  1.0000
  H   H207      1.0  0.98019  0.55255  0.99125  1.0000
  O  Te135     1.0  0.95695  0.48488  0.63928  1.0000
  O  Te136     1.0  0.90932  0.49811  0.56584  1.0000
  H   H208      1.0  0.93867  0.56411  0.92733  1.0000
  Mg  Mg68      1.0  0.92520  0.47133  0.49496  1.0000
  C   C405      1.0  0.45424  0.40680  0.90960  1.0000
  C   C406      1.0  0.46321  0.39255  0.81126  1.0000
  C  Sn137     1.0  0.48483  0.41049  0.71143  1.0000
  C  Sn138     1.0  0.49768  0.44330  0.71032  1.0000
  C   C407      1.0  0.48857  0.45734  0.80920  1.0000
  C   C408      1.0  0.46691  0.43916  0.90860  1.0000
  H   H209      1.0  0.43749  0.39275  0.98656  1.0000
  O  Te137     1.0  0.49353  0.39587  0.61391  1.0000
  O  Te138     1.0  0.51935  0.46178  0.61173  1.0000
  H   H210      1.0  0.45999  0.45021  0.98478  1.0000
  Mg  Mg69      1.0  0.52384  0.43105  0.50035  1.0000
  C   C409      1.0  0.42442  0.96826  0.90490  1.0000
  C   C410      1.0  0.45048  0.97088  0.83803  1.0000
  C  Sn139     1.0  0.44690  0.94970  0.73653  1.0000
  C  Sn140     1.0  0.41663  0.92548  0.70153  1.0000
  C   C411      1.0  0.39071  0.92307  0.76896  1.0000
  C   C412      1.0  0.39456  0.94438  0.87040  1.0000
  H   H211      1.0  0.42739  0.98475  0.98333  1.0000
  O  Te139     1.0  0.47319  0.95265  0.67078  1.0000
  O  Te140     1.0  0.41239  0.90400  0.60044  1.0000
  H   H212      1.0  0.37437  0.94236  0.92209  1.0000
  Mg  Mg70      1.0  0.45542  0.91770  0.53996  1.0000
  C   C413      1.0  0.03553  0.46074  0.91048  1.0000
  C   C414      1.0  0.03101  0.48151  0.83165  1.0000
  C  Sn141     1.0  0.04911  0.49492  0.71589  1.0000
  C  Sn142     1.0  0.07214  0.48734  0.67858  1.0000
  C   C415      1.0  0.07647  0.46652  0.75807  1.0000
  C   C416      1.0  0.05823  0.45325  0.87373  1.0000
  H   H213      1.0  0.02141  0.45046  0.99994  1.0000
  O  Te141     1.0  0.04430  0.51564  0.63830  1.0000
  O  Te142     1.0  0.09055  0.50039  0.56335  1.0000
  H   H214      1.0  0.06172  0.43715  0.93470  1.0000
  Mg  Mg71      1.0  0.07523  0.52739  0.49028  1.0000
  C   C417      1.0  0.54145  0.57542  0.91041  1.0000
  C   C418      1.0  0.51970  0.54949  0.83728  1.0000
  C  Sn143     1.0  0.50452  0.55329  0.72647  1.0000
  C  Sn144     1.0  0.51129  0.58365  0.68839  1.0000
  C   C419      1.0  0.53310  0.60944  0.76214  1.0000
  C   C420      1.0  0.54815  0.60537  0.87288  1.0000
  H   H215      1.0  0.55311  0.57227  0.99605  1.0000
  O  Te143     1.0  0.48284  0.52713  0.65456  1.0000
  O  Te144     1.0  0.49647  0.58811  0.57803  1.0000
  H   H216      1.0  0.56500  0.62545  0.92942  1.0000
  Mg  Mg72      1.0  0.46872  0.54518  0.51180  1.0000
