data_image0
_chemical_formula_structural       H216C348N36SnCSn2CSnTe4Mg2SnCSn2CSnTe4Mg2SnCSn2CSnTe4Mg2SnCSn2CSnTe4Mg2SnCSn2CSnTe4Mg2SnCSn2CSnTe4Mg2SnCSn2CSnTe4Mg2SnCSn2CSnTe4Mg2SnCSn2CSnTe4Mg2SnCSn2CSnTe4Mg2SnCSn2CSnTe4Mg2SnCSn2CSnTe4Mg2SnCSn2CSnTe4Mg2SnCSn2CSnTe4Mg2SnCSn2CSnTe4Mg2SnCSn2CSnTe4Mg2SnCSn2CSnTe4Mg2SnCSn2CSnTe4Mg2SnCSn2CSnTe4Mg2SnCSn2CSnTe4Mg2SnCSn2CSnTe4Mg2SnCSn2CSnTe4Mg2SnCSn2CSnTe4Mg2SnCSn2CSnTe4Mg2SnCSn2CSnTe4Mg2SnCSn2CSnTe4Mg2SnCSn2CSnTe4Mg2SnCSn2CSnTe4Mg2SnCSn2CSnTe4Mg2SnCSn2CSnTe4Mg2SnCSn2CSnTe4Mg2SnCSn2CSnTe4Mg2SnCSn2CSnTe4Mg2SnCSn2CSnTe4Mg2SnCSn2CSnTe4Mg2SnCSn2CSnTe4Mg2
_chemical_formula_sum              "H216 C420 N36 Sn144 Te144 Mg72"
_cell_length_a       49.6612
_cell_length_b       49.5933
_cell_length_c       9.87929
_cell_angle_alpha    90.0571
_cell_angle_beta     89.7735
_cell_angle_gamma    120.112

_symmetry_space_group_name_H-M    'P1'
_space_group_IT_number       1

loop_
  _space_group_symop_operation_xyz
  'x, y, z'

loop_
  _atom_site_type_symbol
  _atom_site_label
  _atom_site_symmetry_multiplicity
  _atom_site_fract_x
  _atom_site_fract_y
  _atom_site_fract_z
  _atom_site_occupancy
  H   H1        1.0  0.01208  0.07475  0.03393  1.0000
  H   H2        1.0  0.06315  0.98793  0.04410  1.0000
  H   H3        1.0  0.04166  0.13163  0.03867  1.0000
  H   H4        1.0  0.09114  0.95939  0.06150  1.0000
  H   H5        1.0  0.09131  0.12819  0.38855  1.0000
  H   H6        1.0  0.03252  0.90689  0.39619  1.0000
  H   H7        1.0  0.06112  0.07037  0.38081  1.0000
  H   H8        1.0  0.00400  0.93569  0.37552  1.0000
  H   H9        1.0  0.32467  0.20789  0.26484  1.0000
  H   H10       1.0  0.79242  0.11783  0.26019  1.0000
  H   H11       1.0  0.88260  0.67499  0.27105  1.0000
  H   H12       1.0  0.67321  0.79241  0.26137  1.0000
  H   H13       1.0  0.20653  0.88238  0.26865  1.0000
  H   H14       1.0  0.11770  0.32568  0.24946  1.0000
  H   H15       1.0  0.31805  0.11806  0.26792  1.0000
  H   H16       1.0  0.88176  0.20186  0.26211  1.0000
  H   H17       1.0  0.79882  0.68013  0.26715  1.0000
  H   H18       1.0  0.68002  0.88228  0.27002  1.0000
  H   H19       1.0  0.11706  0.79858  0.28002  1.0000
  H   H20       1.0  0.20137  0.32017  0.26091  1.0000
  H   H21       1.0  0.40551  0.20064  0.35181  1.0000
  H   H22       1.0  0.79894  0.20568  0.35061  1.0000
  H   H23       1.0  0.79471  0.59293  0.35080  1.0000
  H   H24       1.0  0.59259  0.79960  0.35639  1.0000
  H   H25       1.0  0.20026  0.79370  0.33616  1.0000
  H   H26       1.0  0.20509  0.40701  0.34557  1.0000
  H   H27       1.0  0.74623  0.11276  0.15834  1.0000
  H   H28       1.0  0.63191  0.74751  0.15351  1.0000
  H   H29       1.0  0.25336  0.88935  0.16400  1.0000
  H   H30       1.0  0.11374  0.36745  0.14239  1.0000
  H   H31       1.0  0.68900  0.09060  0.18100  1.0000
  H   H32       1.0  0.59675  0.69004  0.17082  1.0000
  H   H33       1.0  0.31055  0.91138  0.18524  1.0000
  H   H34       1.0  0.09130  0.40228  0.16174  1.0000
  H   H35       1.0  0.44938  0.29671  0.02072  1.0000
  H   H36       1.0  0.84976  0.55135  0.01564  1.0000
  H   H37       1.0  0.15093  0.44920  0.01072  1.0000
  H   H38       1.0  0.41433  0.23967  0.00955  1.0000
  H   H39       1.0  0.82772  0.58637  0.00363  1.0000
  H   H40       1.0  0.17328  0.41454  0.00033  1.0000
  H   H41       1.0  0.89263  0.71408  0.10257  1.0000
  H   H42       1.0  0.70987  0.82273  0.07471  1.0000
  H   H43       1.0  0.17297  0.88536  0.07344  1.0000
  H   H44       1.0  0.92452  0.77145  0.07788  1.0000
  H   H45       1.0  0.76653  0.84869  0.02831  1.0000
  H   H46       1.0  0.14577  0.91486  0.02843  1.0000
  H   H47       1.0  0.86574  0.78309  0.36432  1.0000
  H   H48       1.0  0.78373  0.91493  0.34486  1.0000
  H   H49       1.0  0.08572  0.87098  0.37085  1.0000
  H   H50       1.0  0.83431  0.72551  0.39308  1.0000
  H   H51       1.0  0.72669  0.88935  0.38960  1.0000
  H   H52       1.0  0.11245  0.84061  0.41407  1.0000
  H   H53       1.0  0.33949  0.09694  0.39948  1.0000
  H   H54       1.0  0.90160  0.24401  0.40522  1.0000
  H   H55       1.0  0.10175  0.75653  0.44459  1.0000
  H   H56       1.0  0.36649  0.06644  0.41063  1.0000
  H   H57       1.0  0.93116  0.30163  0.42418  1.0000
  H   H58       1.0  0.07204  0.69875  0.46295  1.0000
  H   H59       1.0  0.45075  0.14534  0.26325  1.0000
  H   H60       1.0  0.85339  0.30643  0.26325  1.0000
  H   H61       1.0  0.14178  0.69299  0.22642  1.0000
  H   H62       1.0  0.42330  0.17550  0.24372  1.0000
  H   H63       1.0  0.82429  0.24880  0.23642  1.0000
  H   H64       1.0  0.17077  0.75086  0.20083  1.0000
  H   H65       1.0  0.45705  0.34923  0.46252  1.0000
  H   H66       1.0  0.65047  0.10647  0.46784  1.0000
  H   H67       1.0  0.89336  0.54341  0.45357  1.0000
  H   H68       1.0  0.54256  0.65023  0.45740  1.0000
  H   H69       1.0  0.34846  0.89110  0.45845  1.0000
  H   H70       1.0  0.10541  0.45553  0.45300  1.0000
  H   H71       1.0  0.17873  0.10693  0.06924  1.0000
  H   H72       1.0  0.88921  0.06870  0.07681  1.0000
  H   H73       1.0  0.93745  0.82286  0.13932  1.0000
  H   H74       1.0  0.81942  0.89152  0.06414  1.0000
  H   H75       1.0  0.10303  0.92405  0.06939  1.0000
  H   H76       1.0  0.06878  0.17940  0.06874  1.0000
  H   H77       1.0  0.41006  0.06016  0.35893  1.0000
  H   H78       1.0  0.93757  0.35137  0.36957  1.0000
  H   H79       1.0  0.64860  0.58782  0.32978  1.0000
  H   H80       1.0  0.58761  0.93995  0.36918  1.0000
  H   H81       1.0  0.06227  0.64845  0.38111  1.0000
  H   H82       1.0  0.34984  0.41061  0.37795  1.0000
  H   H83       1.0  0.48354  0.94735  0.47969  1.0000
  H   H84       1.0  0.51654  0.05593  0.46190  1.0000
  H   H85       1.0  0.49753  0.90585  0.49969  1.0000
  H   H86       1.0  0.50203  0.09703  0.47186  1.0000
  H   H87       1.0  0.56187  0.94693  0.16784  1.0000
  H   H88       1.0  0.43341  0.04945  0.16304  1.0000
  H   H89       1.0  0.54894  0.98889  0.15341  1.0000
  H   H90       1.0  0.44690  0.00781  0.15801  1.0000
  H   H91       1.0  0.00772  0.44742  0.45778  1.0000
  H   H92       1.0  0.04862  0.43305  0.43880  1.0000
  H   H93       1.0  0.05330  0.51733  0.15069  1.0000
  H   H94       1.0  0.09297  0.50127  0.12284  1.0000
  H   H95       1.0  0.99143  0.92376  0.55854  1.0000
  H   H96       1.0  0.93774  0.01274  0.53574  1.0000
  H   H97       1.0  0.01428  0.07616  0.53261  1.0000
  H   H98       1.0  0.92421  0.94413  0.51337  1.0000
  H   H99       1.0  0.06102  0.98467  0.53076  1.0000
  H   H100      1.0  0.96309  0.86724  0.58238  1.0000
  H   H101      1.0  0.91088  0.04260  0.54663  1.0000
  H   H102      1.0  0.04343  0.13292  0.54589  1.0000
  H   H103      1.0  0.86768  0.91720  0.53119  1.0000
  H   H104      1.0  0.08733  0.95429  0.54278  1.0000
  H   H105      1.0  0.90461  0.87409  0.88674  1.0000
  H   H106      1.0  0.96740  0.09381  0.88724  1.0000
  H   H107      1.0  0.09277  0.12729  0.89243  1.0000
  H   H108      1.0  0.87531  0.96259  0.91281  1.0000
  H   H109      1.0  0.03664  0.91047  0.90838  1.0000
  H   H110      1.0  0.93376  0.93137  0.86310  1.0000
  H   H111      1.0  0.99494  0.06383  0.87157  1.0000
  H   H112      1.0  0.06318  0.06957  0.87510  1.0000
  H   H113      1.0  0.93295  0.98940  0.89298  1.0000
  H   H114      1.0  0.01001  0.94127  0.89322  1.0000
  H   H115      1.0  0.32610  0.20617  0.77457  1.0000
  H   H116      1.0  0.79347  0.11780  0.77354  1.0000
  H   H117      1.0  0.88203  0.67414  0.77399  1.0000
  H   H118      1.0  0.67547  0.79284  0.76724  1.0000
  H   H119      1.0  0.20761  0.88249  0.77081  1.0000
  H   H120      1.0  0.11932  0.32596  0.76580  1.0000
  H   H121      1.0  0.31941  0.11646  0.79929  1.0000
  H   H122      1.0  0.88268  0.20208  0.78352  1.0000
  H   H123      1.0  0.79903  0.68065  0.80746  1.0000
  H   H124      1.0  0.68159  0.88244  0.78666  1.0000
  H   H125      1.0  0.11829  0.79849  0.79528  1.0000
  H   H126      1.0  0.20252  0.32004  0.79940  1.0000
  H   H127      1.0  0.40651  0.19967  0.87962  1.0000
  H   H128      1.0  0.79928  0.20533  0.86429  1.0000
  H   H129      1.0  0.79413  0.59228  0.86034  1.0000
  H   H130      1.0  0.59437  0.79907  0.86393  1.0000
  H   H131      1.0  0.20181  0.79593  0.87894  1.0000
  H   H132      1.0  0.20619  0.40740  0.86814  1.0000
  H   H133      1.0  0.36773  0.25130  0.66702  1.0000
  H   H134      1.0  0.88418  0.63132  0.65241  1.0000
  H   H135      1.0  0.11562  0.36739  0.65625  1.0000
  H   H136      1.0  0.40340  0.30862  0.67763  1.0000
  H   H137      1.0  0.90556  0.59544  0.66275  1.0000
  H   H138      1.0  0.09368  0.40277  0.66600  1.0000
  H   H139      1.0  0.70379  0.15051  0.52146  1.0000
  H   H140      1.0  0.55162  0.70303  0.51622  1.0000
  H   H141      1.0  0.29516  0.84608  0.50334  1.0000
  H   H142      1.0  0.14914  0.44690  0.50723  1.0000
  H   H143      1.0  0.76079  0.17336  0.49662  1.0000
  H   H144      1.0  0.58585  0.76026  0.49692  1.0000
  H   H145      1.0  0.23825  0.82361  0.48110  1.0000
  H   H146      1.0  0.17229  0.41303  0.48610  1.0000
  H   H147      1.0  0.29024  0.17636  0.59551  1.0000
  H   H148      1.0  0.23375  0.15075  0.54792  1.0000
  H   H149      1.0  0.21553  0.08189  0.85347  1.0000
  H   H150      1.0  0.27220  0.10760  0.90232  1.0000
  H   H151      1.0  0.34125  0.09556  0.93187  1.0000
  H   H152      1.0  0.90055  0.24421  0.94010  1.0000
  H   H153      1.0  0.09927  0.75712  0.94695  1.0000
  H   H154      1.0  0.24333  0.34412  0.96029  1.0000
  H   H155      1.0  0.36877  0.06565  0.94296  1.0000
  H   H156      1.0  0.93041  0.30196  0.95148  1.0000
  H   H157      1.0  0.06921  0.69942  0.96136  1.0000
  H   H158      1.0  0.30080  0.37183  0.98188  1.0000
  H   H159      1.0  0.45294  0.14548  0.80126  1.0000
  H   H160      1.0  0.85497  0.30625  0.76106  1.0000
  H   H161      1.0  0.14686  0.69453  0.79686  1.0000
  H   H162      1.0  0.30772  0.45164  0.77820  1.0000
  H   H163      1.0  0.42506  0.17504  0.78143  1.0000
  H   H164      1.0  0.82562  0.24845  0.74289  1.0000
  H   H165      1.0  0.17659  0.75223  0.77566  1.0000
  H   H166      1.0  0.25018  0.42354  0.75150  1.0000
  H   H167      1.0  0.45879  0.34912  0.96056  1.0000
  H   H168      1.0  0.65097  0.10874  0.96534  1.0000
  H   H169      1.0  0.89123  0.54056  0.94841  1.0000
  H   H170      1.0  0.54184  0.65029  0.95035  1.0000
  H   H171      1.0  0.35000  0.89384  0.96249  1.0000
  H   H172      1.0  0.10984  0.45986  0.94669  1.0000
  H   H173      1.0  0.18110  0.11065  0.58738  1.0000
  H   H174      1.0  0.88951  0.06866  0.58646  1.0000
  H   H175      1.0  0.92760  0.82015  0.58669  1.0000
  H   H176      1.0  0.82242  0.88721  0.60563  1.0000
  H   H177      1.0  0.11406  0.93478  0.60625  1.0000
  H   H178      1.0  0.07406  0.18098  0.57080  1.0000
  H   H179      1.0  0.41260  0.05974  0.88547  1.0000
  H   H180      1.0  0.93819  0.35142  0.88215  1.0000
  H   H181      1.0  0.64883  0.58577  0.89109  1.0000
  H   H182      1.0  0.58953  0.93921  0.89444  1.0000
  H   H183      1.0  0.06208  0.64968  0.89850  1.0000
  H   H184      1.0  0.35135  0.41376  0.91611  1.0000
  H   H185      1.0  0.48143  0.94348  0.95679  1.0000
  H   H186      1.0  0.05662  0.53669  0.94419  1.0000
  H   H187      1.0  0.51807  0.05365  0.97232  1.0000
  H   H188      1.0  0.94328  0.46389  0.93872  1.0000
  H   H189      1.0  0.49559  0.90225  0.97519  1.0000
  H   H190      1.0  0.09816  0.59203  0.96714  1.0000
  H   H191      1.0  0.50372  0.09471  0.99648  1.0000
  H   H192      1.0  0.90146  0.40854  0.95172  1.0000
  H   H193      1.0  0.56996  0.95151  0.68928  1.0000
  H   H194      1.0  0.05026  0.61900  0.68497  1.0000
  H   H195      1.0  0.43738  0.05268  0.67446  1.0000
  H   H196      1.0  0.95232  0.38355  0.67506  1.0000
  H   H197      1.0  0.55644  0.99301  0.67359  1.0000
  H   H198      1.0  0.00868  0.56399  0.66328  1.0000
  H   H199      1.0  0.45083  0.01110  0.65511  1.0000
  H   H200      1.0  0.99448  0.43852  0.66552  1.0000
  H   H201      1.0  0.56039  0.01400  0.98622  1.0000
  H   H202      1.0  0.98599  0.54638  0.97327  1.0000
  H   H203      1.0  0.43948  0.98991  0.96775  1.0000
  H   H204      1.0  0.01584  0.45681  0.98189  1.0000
  H   H205      1.0  0.61559  0.05508  0.96914  1.0000
  H   H206      1.0  0.94500  0.56044  0.95301  1.0000
  H   H207      1.0  0.38423  0.94909  0.94847  1.0000
  H   H208      1.0  0.05577  0.44129  0.96086  1.0000
  H   H209      1.0  0.53884  0.05049  0.63572  1.0000
  H   H210      1.0  0.95141  0.48889  0.61983  1.0000
  H   H211      1.0  0.46375  0.94617  0.65298  1.0000
  H   H212      1.0  0.04979  0.51146  0.61945  1.0000
  H   H213      1.0  0.59465  0.09081  0.61239  1.0000
  H   H214      1.0  0.91111  0.50418  0.59353  1.0000
  H   H215      1.0  0.40801  0.90645  0.62517  1.0000
  H   H216      1.0  0.08882  0.49458  0.59238  1.0000
  C   C1        1.0  0.03460  0.06797  0.20525  1.0000
  C   C2        1.0  0.03108  0.96409  0.20759  1.0000
  C   C3        1.0  0.98342  0.01736  0.19972  1.0000
  C   C4        1.0  0.98186  0.96706  0.20136  1.0000
  C   C5        1.0  0.03232  0.01585  0.20109  1.0000
  C   C6        1.0  0.01490  0.98266  0.20136  1.0000
  C   C7        1.0  0.01650  0.03311  0.20056  1.0000
  C   C8        1.0  0.96590  0.98419  0.20019  1.0000
  C   C9        1.0  0.02966  0.08633  0.11119  1.0000
  C   C10       1.0  0.05593  0.96991  0.12060  1.0000
  C   C11       1.0  0.04633  0.11871  0.11496  1.0000
  C   C12       1.0  0.07193  0.95366  0.13082  1.0000
  C   C13       1.0  0.06919  0.13444  0.21496  1.0000
  C   C14       1.0  0.06358  0.93035  0.23015  1.0000
  C   C15       1.0  0.07409  0.11618  0.30989  1.0000
  C   C16       1.0  0.03868  0.92433  0.31734  1.0000
  C   C17       1.0  0.05712  0.08381  0.30520  1.0000
  C   C18       1.0  0.02286  0.94071  0.30576  1.0000
  C   C19       1.0  0.44838  0.34079  0.35980  1.0000
  C   C20       1.0  0.65904  0.10630  0.36501  1.0000
  C   C21       1.0  0.89275  0.55180  0.35109  1.0000
  C   C22       1.0  0.55153  0.65903  0.35513  1.0000
  C   C23       1.0  0.34022  0.89291  0.35739  1.0000
  C   C24       1.0  0.10524  0.44699  0.34991  1.0000
  C   C25       1.0  0.18548  0.09990  0.16291  1.0000
  C   C26       1.0  0.89919  0.08583  0.15931  1.0000
  C   C27       1.0  0.91660  0.81493  0.20319  1.0000
  C   C28       1.0  0.81254  0.89874  0.15736  1.0000
  C   C29       1.0  0.09787  0.91235  0.16859  1.0000
  C   C30       1.0  0.08513  0.18650  0.15399  1.0000
  C   C31       1.0  0.36742  0.20814  0.30878  1.0000
  C   C32       1.0  0.79170  0.16005  0.30596  1.0000
  C   C33       1.0  0.84005  0.63166  0.30995  1.0000
  C   C34       1.0  0.63055  0.79214  0.30869  1.0000
  C   C35       1.0  0.20751  0.83982  0.30412  1.0000
  C   C36       1.0  0.15977  0.36869  0.29717  1.0000
  C   C37       1.0  0.33568  0.19380  0.27612  1.0000
  C   C38       1.0  0.80632  0.14299  0.27172  1.0000
  C   C39       1.0  0.85739  0.66362  0.28026  1.0000
  C   C40       1.0  0.66224  0.80651  0.27437  1.0000
  C   C41       1.0  0.19275  0.85714  0.27810  1.0000
  C   C42       1.0  0.14278  0.33696  0.26280  1.0000
  C   C43       1.0  0.31755  0.16121  0.26533  1.0000
  C   C44       1.0  0.83887  0.15772  0.25958  1.0000
  C   C45       1.0  0.84267  0.68144  0.27011  1.0000
  C   C46       1.0  0.68043  0.83909  0.26431  1.0000
  C   C47       1.0  0.16014  0.84249  0.27161  1.0000
  C   C48       1.0  0.15743  0.31904  0.25321  1.0000
  C   C49       1.0  0.33184  0.14315  0.28247  1.0000
  C   C50       1.0  0.85669  0.19018  0.27723  1.0000
  C   C51       1.0  0.81014  0.66648  0.28297  1.0000
  C   C52       1.0  0.66620  0.85717  0.28409  1.0000
  C   C53       1.0  0.14225  0.81003  0.28918  1.0000
  C   C54       1.0  0.18971  0.33360  0.27459  1.0000
  C   C55       1.0  0.36372  0.15701  0.31126  1.0000
  C   C56       1.0  0.84253  0.20787  0.30761  1.0000
  C   C57       1.0  0.79211  0.63437  0.30991  1.0000
  C   C58       1.0  0.63433  0.84331  0.31486  1.0000
  C   C59       1.0  0.15653  0.79210  0.30997  1.0000
  C   C60       1.0  0.20733  0.36540  0.30676  1.0000
  C   C61       1.0  0.38093  0.18947  0.32681  1.0000
  C   C62       1.0  0.81011  0.19234  0.32394  1.0000
  C   C63       1.0  0.80775  0.61763  0.32661  1.0000
  C   C64       1.0  0.61711  0.81080  0.32948  1.0000
  C   C65       1.0  0.18906  0.80738  0.31796  1.0000
  C   C66       1.0  0.19188  0.38245  0.31905  1.0000
  C   C67       1.0  0.37947  0.13856  0.32171  1.0000
  C   C68       1.0  0.86061  0.24214  0.32088  1.0000
  C   C69       1.0  0.13847  0.75779  0.32223  1.0000
  C   C70       1.0  0.86117  0.71558  0.24977  1.0000
  C   C71       1.0  0.71419  0.85421  0.23533  1.0000
  C   C72       1.0  0.14460  0.86086  0.24666  1.0000
  C   C73       1.0  0.75764  0.14514  0.32393  1.0000
  C   C74       1.0  0.61096  0.75799  0.32248  1.0000
  C   C75       1.0  0.24160  0.85445  0.31920  1.0000
  C   C76       1.0  0.14497  0.38802  0.31162  1.0000
  C   C77       1.0  0.73694  0.12098  0.23803  1.0000
  C   C78       1.0  0.61431  0.73777  0.23285  1.0000
  C   C79       1.0  0.26246  0.87989  0.23863  1.0000
  C   C80       1.0  0.12143  0.38476  0.22266  1.0000
  C   C81       1.0  0.70498  0.10872  0.24956  1.0000
  C   C82       1.0  0.59458  0.70572  0.24128  1.0000
  C   C83       1.0  0.29442  0.89208  0.24909  1.0000
  C   C84       1.0  0.10900  0.40433  0.23230  1.0000
  C   C85       1.0  0.69266  0.11971  0.34987  1.0000
  C   C86       1.0  0.57130  0.69279  0.34172  1.0000
  C   C87       1.0  0.30663  0.87965  0.34263  1.0000
  C   C88       1.0  0.11919  0.42731  0.33373  1.0000
  C   C89       1.0  0.71317  0.14278  0.44008  1.0000
  C   C90       1.0  0.56867  0.71284  0.43468  1.0000
  C   C91       1.0  0.28594  0.85508  0.42706  1.0000
  C   C92       1.0  0.14192  0.42993  0.42561  1.0000
  C   C93       1.0  0.74517  0.15561  0.42588  1.0000
  C   C94       1.0  0.58789  0.74496  0.42381  1.0000
  C   C95       1.0  0.25397  0.84243  0.41422  1.0000
  C   C96       1.0  0.15492  0.41090  0.41351  1.0000
  C   C97       1.0  0.88703  0.72910  0.16208  1.0000
  C   C98       1.0  0.72599  0.84271  0.13509  1.0000
  C   C99       1.0  0.15415  0.88248  0.13975  1.0000
  C   C100      1.0  0.90484  0.76135  0.14766  1.0000
  C   C101      1.0  0.75788  0.85737  0.10892  1.0000
  C   C102      1.0  0.13872  0.89893  0.11420  1.0000
  C   C103      1.0  0.89730  0.78120  0.21978  1.0000
  C   C104      1.0  0.77907  0.88358  0.18434  1.0000
  C   C105      1.0  0.11381  0.89490  0.19701  1.0000
  C   C106      1.0  0.87124  0.76772  0.30688  1.0000
  C   C107      1.0  0.76726  0.89488  0.28588  1.0000
  C   C108      1.0  0.10466  0.87369  0.30587  1.0000
  C   C109      1.0  0.85363  0.73557  0.32153  1.0000
  C   C110      1.0  0.73547  0.88065  0.30973  1.0000
  C   C111      1.0  0.11955  0.85675  0.32911  1.0000
  C   C112      1.0  0.36370  0.10752  0.36773  1.0000
  C   C113      1.0  0.89106  0.25755  0.37253  1.0000
  C   C114      1.0  0.11032  0.74267  0.39507  1.0000
  C   C115      1.0  0.37897  0.09049  0.37524  1.0000
  C   C116      1.0  0.90755  0.28989  0.38442  1.0000
  C   C117      1.0  0.09387  0.71030  0.40662  1.0000
  C   C118      1.0  0.41061  0.10410  0.33946  1.0000
  C   C119      1.0  0.89395  0.30777  0.34724  1.0000
  C   C120      1.0  0.10541  0.69222  0.34797  1.0000
  C   C121      1.0  0.42649  0.13516  0.29358  1.0000
  C   C122      1.0  0.86352  0.29246  0.29527  1.0000
  C   C123      1.0  0.13355  0.70725  0.27494  1.0000
  C   C124      1.0  0.41106  0.15190  0.28406  1.0000
  C   C125      1.0  0.84733  0.26027  0.28163  1.0000
  C   C126      1.0  0.14966  0.73949  0.26186  1.0000
  C   C127      1.0  0.42572  0.08541  0.34554  1.0000
  C   C128      1.0  0.91241  0.34167  0.35481  1.0000
  C   C129      1.0  0.65796  0.57184  0.33116  1.0000
  C   C130      1.0  0.57190  0.91457  0.36141  1.0000
  C   C131      1.0  0.08710  0.65826  0.35646  1.0000
  C   C132      1.0  0.34062  0.42647  0.36275  1.0000
  C   C133      1.0  0.51579  0.97167  0.31754  1.0000
  C   C134      1.0  0.48233  0.02832  0.31146  1.0000
  C   C135      1.0  0.51328  0.00033  0.31512  1.0000
  C   C136      1.0  0.99957  0.51401  0.30245  1.0000
  C   C137      1.0  0.48586  0.48599  0.31021  1.0000
  C   C138      1.0  0.48573  0.00020  0.31338  1.0000
  C   C139      1.0  0.99900  0.48619  0.30521  1.0000
  C   C140      1.0  0.51334  0.51362  0.30872  1.0000
  C   C141      1.0  0.02718  0.48305  0.30426  1.0000
  C   C142      1.0  0.50064  0.94719  0.41123  1.0000
  C   C143      1.0  0.49838  0.05446  0.39603  1.0000
  C   C144      1.0  0.50827  0.92375  0.42211  1.0000
  C   C145      1.0  0.49045  0.07775  0.40122  1.0000
  C   C146      1.0  0.53186  0.92451  0.33987  1.0000
  C   C147      1.0  0.46563  0.07522  0.32306  1.0000
  C   C148      1.0  0.54535  0.94755  0.23854  1.0000
  C   C149      1.0  0.45101  0.05032  0.23093  1.0000
  C   C150      1.0  0.53750  0.97063  0.22887  1.0000
  C   C151      1.0  0.45917  0.02743  0.22638  1.0000
  C   C152      1.0  0.07341  0.46590  0.27814  1.0000
  C   C153      1.0  0.02691  0.45983  0.38712  1.0000
  C   C154      1.0  0.04973  0.45166  0.37647  1.0000
  C   C155      1.0  0.05237  0.49899  0.21425  1.0000
  C   C156      1.0  0.07479  0.49018  0.19909  1.0000
  C   C157      1.0  0.03666  0.06833  0.70171  1.0000
  C   C158      1.0  0.93305  0.96864  0.70277  1.0000
  C   C159      1.0  0.03315  0.96510  0.70997  1.0000
  C   C160      1.0  0.96482  0.93243  0.70756  1.0000
  C   C161      1.0  0.96859  0.03597  0.70248  1.0000
  C   C162      1.0  0.98518  0.01785  0.69554  1.0000
  C   C163      1.0  0.98328  0.96719  0.69890  1.0000
  C   C164      1.0  0.03385  0.01613  0.69765  1.0000
  C   C165      1.0  0.01643  0.98304  0.70018  1.0000
  C   C166      1.0  0.01828  0.03359  0.69589  1.0000
  C   C167      1.0  0.96781  0.98477  0.69593  1.0000
  C   C168      1.0  0.97215  0.91315  0.62960  1.0000
  C   C169      1.0  0.94445  0.03058  0.61277  1.0000
  C   C170      1.0  0.03169  0.08723  0.61101  1.0000
  C   C171      1.0  0.91378  0.94789  0.60272  1.0000
  C   C172      1.0  0.05565  0.96850  0.61408  1.0000
  C   C173      1.0  0.95596  0.88088  0.64326  1.0000
  C   C174      1.0  0.92901  0.04743  0.62006  1.0000
  C   C175      1.0  0.04820  0.11957  0.61950  1.0000
  C   C176      1.0  0.88149  0.93238  0.61346  1.0000
  C   C177      1.0  0.07087  0.95148  0.62210  1.0000
  C   C178      1.0  0.93098  0.86610  0.73565  1.0000
  C   C179      1.0  0.93707  0.07070  0.71952  1.0000
  C   C180      1.0  0.07082  0.13467  0.72109  1.0000
  C   C181      1.0  0.86697  0.93720  0.72651  1.0000
  C   C182      1.0  0.06424  0.93010  0.72877  1.0000
  C   C183      1.0  0.92341  0.88520  0.81326  1.0000
  C   C184      1.0  0.96125  0.07619  0.80930  1.0000
  C   C185      1.0  0.07580  0.11582  0.81238  1.0000
  C   C186      1.0  0.88624  0.95863  0.82545  1.0000
  C   C187      1.0  0.04174  0.92666  0.82510  1.0000
  C   C188      1.0  0.93993  0.91743  0.79959  1.0000
  C   C189      1.0  0.97645  0.05916  0.80088  1.0000
  C   C190      1.0  0.05911  0.08353  0.80263  1.0000
  C   C191      1.0  0.91846  0.97368  0.81385  1.0000
  C   C192      1.0  0.02683  0.94397  0.81619  1.0000
  C   C193      1.0  0.44923  0.34031  0.85926  1.0000
  C   C194      1.0  0.65966  0.10776  0.86380  1.0000
  C   C195      1.0  0.89221  0.55055  0.84779  1.0000
  C   C196      1.0  0.55193  0.65885  0.84922  1.0000
  C   C197      1.0  0.34146  0.89338  0.85933  1.0000
  C   C198      1.0  0.10780  0.44895  0.84728  1.0000
  C   C199      1.0  0.18734  0.10057  0.67247  1.0000
  C   C200      1.0  0.90001  0.08586  0.66839  1.0000
  C   C201      1.0  0.91392  0.81365  0.68118  1.0000
  C   C202      1.0  0.81510  0.89872  0.68057  1.0000
  C   C203      1.0  0.10210  0.91589  0.68063  1.0000
  C   C204      1.0  0.08829  0.18728  0.66311  1.0000
  C   C205      1.0  0.36870  0.20692  0.82724  1.0000
  C   C206      1.0  0.79244  0.15987  0.81938  1.0000
  C   C207      1.0  0.83976  0.63097  0.81855  1.0000
  C   C208      1.0  0.63254  0.79198  0.81459  1.0000
  C   C209      1.0  0.20859  0.84077  0.82392  1.0000
  C   C210      1.0  0.16102  0.36901  0.81798  1.0000
  C   C211      1.0  0.33707  0.19222  0.79211  1.0000
  C   C212      1.0  0.80731  0.14295  0.78643  1.0000
  C   C213      1.0  0.85702  0.66304  0.79020  1.0000
  C   C214      1.0  0.66438  0.80678  0.78215  1.0000
  C   C215      1.0  0.19371  0.85750  0.78844  1.0000
  C   C216      1.0  0.14422  0.33717  0.78461  1.0000
  C   C217      1.0  0.31894  0.15953  0.78565  1.0000
  C   C218      1.0  0.83997  0.15787  0.77692  1.0000
  C   C219      1.0  0.84261  0.68128  0.78917  1.0000
  C   C220      1.0  0.68249  0.83949  0.77535  1.0000
  C   C221      1.0  0.16101  0.84264  0.78201  1.0000
  C   C222      1.0  0.15887  0.31916  0.78113  1.0000
  C   C223      1.0  0.33315  0.14163  0.81070  1.0000
  C   C224      1.0  0.85757  0.19027  0.79744  1.0000
  C   C225      1.0  0.81039  0.66679  0.81334  1.0000
  C   C226      1.0  0.66802  0.85725  0.79857  1.0000
  C   C227      1.0  0.14343  0.81041  0.80742  1.0000
  C   C228      1.0  0.19092  0.33364  0.80817  1.0000
  C   C229      1.0  0.36495  0.15577  0.84201  1.0000
  C   C230      1.0  0.84317  0.20780  0.82698  1.0000
  C   C231      1.0  0.79243  0.63451  0.83561  1.0000
  C   C232      1.0  0.63614  0.84299  0.82926  1.0000
  C   C233      1.0  0.15780  0.79310  0.84082  1.0000
  C   C234      1.0  0.20841  0.36562  0.83715  1.0000
  C   C235      1.0  0.38203  0.18835  0.85287  1.0000
  C   C236      1.0  0.81069  0.19211  0.83957  1.0000
  C   C237      1.0  0.80763  0.61717  0.84033  1.0000
  C   C238      1.0  0.61898  0.81042  0.83862  1.0000
  C   C239      1.0  0.19030  0.80884  0.85115  1.0000
  C   C240      1.0  0.19297  0.38272  0.84381  1.0000
  C   C241      1.0  0.38108  0.13769  0.85664  1.0000
  C   C242      1.0  0.86099  0.24211  0.84001  1.0000
  C   C243      1.0  0.14000  0.75893  0.85885  1.0000
  C   C244      1.0  0.24253  0.38187  0.85520  1.0000
  C   C245      1.0  0.28535  0.14405  0.75337  1.0000
  C   C246      1.0  0.38865  0.24118  0.83636  1.0000
  C   C247      1.0  0.85404  0.61108  0.82629  1.0000
  C   C248      1.0  0.14651  0.38873  0.82604  1.0000
  C   C249      1.0  0.38552  0.26119  0.74491  1.0000
  C   C250      1.0  0.87668  0.61389  0.73223  1.0000
  C   C251      1.0  0.12338  0.38529  0.73398  1.0000
  C   C252      1.0  0.40561  0.29325  0.74950  1.0000
  C   C253      1.0  0.88851  0.59377  0.73678  1.0000
  C   C254      1.0  0.11125  0.40518  0.73817  1.0000
  C   C255      1.0  0.42923  0.30652  0.84765  1.0000
  C   C256      1.0  0.87860  0.57060  0.83745  1.0000
  C   C257      1.0  0.12140  0.42887  0.83644  1.0000
  C   C258      1.0  0.43193  0.28669  0.94136  1.0000
  C   C259      1.0  0.85670  0.56834  0.93408  1.0000
  C   C260      1.0  0.14384  0.43181  0.93088  1.0000
  C   C261      1.0  0.41224  0.25458  0.93469  1.0000
  C   C262      1.0  0.84432  0.58800  0.92731  1.0000
  C   C263      1.0  0.15641  0.41231  0.92476  1.0000
  C   C264      1.0  0.27393  0.15602  0.65401  1.0000
  C   C265      1.0  0.24215  0.14147  0.62664  1.0000
  C   C266      1.0  0.22067  0.11469  0.69881  1.0000
  C   C267      1.0  0.23214  0.10246  0.79719  1.0000
  C   C268      1.0  0.26382  0.11679  0.82322  1.0000
  C   C269      1.0  0.36561  0.10660  0.90192  1.0000
  C   C270      1.0  0.89072  0.25770  0.89883  1.0000
  C   C271      1.0  0.10961  0.74351  0.91205  1.0000
  C   C272      1.0  0.25733  0.36755  0.91944  1.0000
  C   C273      1.0  0.38120  0.08984  0.90943  1.0000
  C   C274      1.0  0.90732  0.29012  0.90643  1.0000
  C   C275      1.0  0.09287  0.71112  0.92146  1.0000
  C   C276      1.0  0.28961  0.38326  0.93260  1.0000
  C   C277      1.0  0.41291  0.10372  0.87444  1.0000
  C   C278      1.0  0.89457  0.30795  0.85731  1.0000
  C   C279      1.0  0.10610  0.69314  0.87986  1.0000
  C   C280      1.0  0.30806  0.41385  0.88328  1.0000
  C   C281      1.0  0.42860  0.13495  0.83091  1.0000
  C   C282      1.0  0.86458  0.29239  0.80067  1.0000
  C   C283      1.0  0.13686  0.70854  0.83041  1.0000
  C   C284      1.0  0.29330  0.42831  0.81950  1.0000
  C   C285      1.0  0.41287  0.15140  0.82125  1.0000
  C   C286      1.0  0.84826  0.26011  0.79175  1.0000
  C   C287      1.0  0.15335  0.74078  0.81969  1.0000
  C   C288      1.0  0.26117  0.41253  0.80563  1.0000
  C   C289      1.0  0.42818  0.08510  0.87543  1.0000
  C   C290      1.0  0.91335  0.34189  0.85948  1.0000
  C   C291      1.0  0.65846  0.57061  0.86625  1.0000
  C   C292      1.0  0.57390  0.91414  0.87630  1.0000
  C   C293      1.0  0.08711  0.65923  0.87945  1.0000
  C   C294      1.0  0.34196  0.42898  0.88917  1.0000
  C   C295      1.0  0.51832  0.97193  0.81620  1.0000
  C   C296      1.0  0.02884  0.54608  0.80522  1.0000
  C   C297      1.0  0.48473  0.02858  0.81518  1.0000
  C   C298      1.0  0.97262  0.45551  0.80359  1.0000
  C   C299      1.0  0.51473  0.99993  0.81327  1.0000
  C   C300      1.0  0.00062  0.51458  0.80164  1.0000
  C   C301      1.0  0.48631  0.48564  0.81235  1.0000
  C   C302      1.0  0.48716  0.99985  0.81274  1.0000
  C   C303      1.0  0.00077  0.48709  0.80289  1.0000
  C   C304      1.0  0.51383  0.51336  0.81051  1.0000
  C   C305      1.0  0.54565  0.02900  0.81154  1.0000
  C   C306      1.0  0.97177  0.51671  0.79776  1.0000
  C   C307      1.0  0.45575  0.97146  0.81040  1.0000
  C   C308      1.0  0.02963  0.48495  0.80131  1.0000
  C   C309      1.0  0.50080  0.94536  0.89759  1.0000
  C   C310      1.0  0.05515  0.55458  0.88671  1.0000
  C   C311      1.0  0.50039  0.05337  0.90689  1.0000
  C   C312      1.0  0.94542  0.44644  0.88056  1.0000
  C   C313      1.0  0.50854  0.92202  0.90782  1.0000
  C   C314      1.0  0.07864  0.58562  0.89952  1.0000
  C   C315      1.0  0.49262  0.07668  0.91990  1.0000
  C   C316      1.0  0.92171  0.41534  0.88752  1.0000
  C   C317      1.0  0.53475  0.92492  0.83897  1.0000
  C   C318      1.0  0.07615  0.60942  0.83351  1.0000
  C   C319      1.0  0.46833  0.07550  0.84232  1.0000
  C   C320      1.0  0.92477  0.39201  0.81980  1.0000
  C   C321      1.0  0.55107  0.95028  0.75007  1.0000
  C   C322      1.0  0.05115  0.60094  0.74388  1.0000
  C   C323      1.0  0.45445  0.05233  0.74201  1.0000
  C   C324      1.0  0.95085  0.40114  0.73533  1.0000
  C   C325      1.0  0.54297  0.97316  0.73975  1.0000
  C   C326      1.0  0.02816  0.56998  0.73055  1.0000
  C   C327      1.0  0.46253  0.02945  0.72978  1.0000
  C   C328      1.0  0.97413  0.43210  0.72830  1.0000
  C   C329      1.0  0.60909  0.07566  0.78840  1.0000
  C   C330      1.0  0.92518  0.53332  0.77144  1.0000
  C   C331      1.0  0.39213  0.92503  0.78439  1.0000
  C   C332      1.0  0.07493  0.46656  0.77396  1.0000
  C   C333      1.0  0.56774  0.03141  0.90669  1.0000
  C   C334      1.0  0.96896  0.53635  0.89256  1.0000
  C   C335      1.0  0.43272  0.97113  0.89524  1.0000
  C   C336      1.0  0.03240  0.46580  0.89856  1.0000
  C   C337      1.0  0.59874  0.05442  0.89728  1.0000
  C   C338      1.0  0.94600  0.54428  0.88139  1.0000
  C   C339      1.0  0.40169  0.94828  0.88454  1.0000
  C   C340      1.0  0.05480  0.45704  0.88697  1.0000
  C   C341      1.0  0.55560  0.05185  0.70990  1.0000
  C   C342      1.0  0.94959  0.50410  0.69397  1.0000
  C   C343      1.0  0.44635  0.94678  0.71792  1.0000
  C   C344      1.0  0.05148  0.49653  0.69528  1.0000
  C   C345      1.0  0.58690  0.07455  0.69684  1.0000
  C   C346      1.0  0.92691  0.51257  0.67923  1.0000
  C   C347      1.0  0.41507  0.92428  0.70280  1.0000
  C   C348      1.0  0.07344  0.48709  0.68001  1.0000
  N   N1        1.0  0.16557  0.07938  0.24623  1.0000
  N   N2        1.0  0.92224  0.08939  0.23308  1.0000
  N   N3        1.0  0.90979  0.83416  0.26121  1.0000
  N   N4        1.0  0.83228  0.91954  0.23962  1.0000
  N   N5        1.0  0.07862  0.91323  0.25480  1.0000
  N   N6        1.0  0.08761  0.16688  0.23195  1.0000
  N   N7        1.0  0.54206  0.90295  0.35612  1.0000
  N   N8        1.0  0.09841  0.64021  0.33418  1.0000
  N   N9        1.0  0.35924  0.45615  0.34938  1.0000
  N   N10       1.0  0.45549  0.09688  0.33542  1.0000
  N   N11       1.0  0.90090  0.35984  0.34238  1.0000
  N   N12       1.0  0.63943  0.54197  0.33458  1.0000
  N   N13       1.0  0.64030  0.09390  0.26383  1.0000
  N   N14       1.0  0.90484  0.54548  0.24819  1.0000
  N   N15       1.0  0.45471  0.35973  0.25905  1.0000
  N   N16       1.0  0.35928  0.90678  0.25804  1.0000
  N   N17       1.0  0.09260  0.45335  0.24997  1.0000
  N   N18       1.0  0.54585  0.64043  0.25363  1.0000
  N   N19       1.0  0.16700  0.07800  0.74698  1.0000
  N   N20       1.0  0.92318  0.08907  0.74037  1.0000
  N   N21       1.0  0.91336  0.83395  0.76187  1.0000
  N   N22       1.0  0.83470  0.92308  0.74822  1.0000
  N   N23       1.0  0.07776  0.91138  0.74806  1.0000
  N   N24       1.0  0.08882  0.16695  0.74356  1.0000
  N   N25       1.0  0.54447  0.90308  0.85631  1.0000
  N   N26       1.0  0.09806  0.64092  0.85459  1.0000
  N   N27       1.0  0.36043  0.45805  0.86071  1.0000
  N   N28       1.0  0.45794  0.09681  0.86251  1.0000
  N   N29       1.0  0.90256  0.36032  0.83469  1.0000
  N   N30       1.0  0.64014  0.54142  0.83911  1.0000
  N   N31       1.0  0.64104  0.09453  0.76292  1.0000
  N   N32       1.0  0.90595  0.54591  0.74626  1.0000
  N   N33       1.0  0.45437  0.35894  0.75837  1.0000
  N   N34       1.0  0.36033  0.90565  0.75786  1.0000
  N   N35       1.0  0.09332  0.45300  0.74773  1.0000
  N   N36       1.0  0.54685  0.63995  0.74954  1.0000
  C  Sn1       1.0  0.89506  0.60627  0.25326  1.0000
  C   C349      1.0  0.88712  0.58192  0.34480  1.0000
  C  Sn2       1.0  0.86007  0.57040  0.42305  1.0000
  C  Sn3       1.0  0.84054  0.58348  0.40949  1.0000
  C   C350      1.0  0.84849  0.60781  0.31798  1.0000
  C  Sn4       1.0  0.87554  0.61935  0.23969  1.0000
  O  Te1       1.0  0.92222  0.61741  0.17606  1.0000
  O  Te2       1.0  0.85261  0.54605  0.51391  1.0000
  O  Te3       1.0  0.81337  0.57231  0.48679  1.0000
  O  Te4       1.0  0.88299  0.64368  0.14887  1.0000
  Mg  Mg1       1.0  0.81316  0.53884  0.59658  1.0000
  Mg  Mg2       1.0  0.92243  0.65089  0.06610  1.0000
  C  Sn5       1.0  0.83885  0.10436  0.15046  1.0000
  C   C351      1.0  0.84748  0.12894  0.24138  1.0000
  C  Sn6       1.0  0.87713  0.14384  0.29891  1.0000
  C  Sn7       1.0  0.89862  0.13398  0.26479  1.0000
  C   C352      1.0  0.88999  0.10942  0.17391  1.0000
  C  Sn8       1.0  0.86034  0.09450  0.11634  1.0000
  O  Te5       1.0  0.80909  0.08981  0.09416  1.0000
  O  Te6       1.0  0.88522  0.16835  0.38958  1.0000
  O  Te7       1.0  0.92840  0.14856  0.32118  1.0000
  O  Te8       1.0  0.85226  0.07001  0.02570  1.0000
  Mg  Mg3       1.0  0.92850  0.18084  0.43951  1.0000
  Mg  Mg4       1.0  0.80806  0.05725  0.97566  1.0000
  C  Sn9       1.0  0.58977  0.73730  0.95699  1.0000
  C   C353      1.0  0.61334  0.75425  0.86254  1.0000
  C  Sn10      1.0  0.61507  0.74023  0.74267  1.0000
  C  Sn11      1.0  0.59277  0.70860  0.71661  1.0000
  C   C354      1.0  0.56922  0.69166  0.81100  1.0000
  C  Sn12      1.0  0.56747  0.70567  0.93092  1.0000
  O  Te9       1.0  0.58940  0.75206  0.07614  1.0000
  O  Te10      1.0  0.63885  0.75765  0.64980  1.0000
  O  Te11      1.0  0.59408  0.69411  0.59734  1.0000
  O  Te12      1.0  0.54462  0.68853  0.02374  1.0000
  Mg  Mg5       1.0  0.63081  0.72755  0.50207  1.0000
  Mg  Mg6       1.0  0.55263  0.71861  0.17147  1.0000
  C  Sn13      1.0  0.62657  0.91087  0.34659  1.0000
  C   C355      1.0  0.59537  0.90104  0.31988  1.0000
  C  Sn14      1.0  0.57359  0.86933  0.30810  1.0000
  C  Sn15      1.0  0.58318  0.84696  0.32342  1.0000
  C   C356      1.0  0.61436  0.85679  0.35014  1.0000
  C  Sn16      1.0  0.63616  0.88850  0.36192  1.0000
  O  Te13      1.0  0.64794  0.94270  0.35797  1.0000
  O  Te14      1.0  0.54253  0.86007  0.28131  1.0000
  O  Te15      1.0  0.56177  0.81511  0.31202  1.0000
  O  Te16      1.0  0.66720  0.89776  0.38871  1.0000
  Mg  Mg7       1.0  0.52211  0.81405  0.27487  1.0000
  Mg  Mg8       1.0  0.68763  0.94377  0.39524  1.0000
  C  Sn17      1.0  0.89127  0.12810  0.82984  1.0000
  C   C357      1.0  0.88293  0.10422  0.73537  1.0000
  C  Sn18      1.0  0.86188  0.09966  0.63229  1.0000
  C  Sn19      1.0  0.84892  0.11939  0.62339  1.0000
  C   C358      1.0  0.85727  0.14325  0.71780  1.0000
  C  Sn20      1.0  0.87831  0.14782  0.82093  1.0000
  O  Te17      1.0  0.91236  0.13223  0.93204  1.0000
  O  Te18      1.0  0.85389  0.07563  0.53905  1.0000
  O  Te19      1.0  0.82782  0.11523  0.52108  1.0000
  O  Te20      1.0  0.88630  0.17184  0.91412  1.0000
  Mg  Mg9       1.0  0.82420  0.07932  0.41807  1.0000
  Mg  Mg10      1.0  0.91692  0.16845  0.03509  1.0000
  C  Sn21      1.0  0.40871  0.26161  0.46139  1.0000
  C   C359      1.0  0.38608  0.24551  0.36295  1.0000
  C  Sn22      1.0  0.38582  0.26044  0.24355  1.0000
  C  Sn23      1.0  0.40867  0.29212  0.22203  1.0000
  C   C360      1.0  0.43128  0.30821  0.32042  1.0000
  C  Sn24      1.0  0.43155  0.29330  0.43988  1.0000
  O  Te21      1.0  0.40852  0.24622  0.58000  1.0000
  O  Te22      1.0  0.36296  0.24385  0.14663  1.0000
  O  Te23      1.0  0.40884  0.30751  0.10330  1.0000
  O  Te24      1.0  0.45440  0.30986  0.53674  1.0000
  Mg  Mg11      1.0  0.37293  0.27500  0.00147  1.0000
  Mg  Mg12      1.0  0.44447  0.27873  0.68190  1.0000
  C  Sn25      1.0  0.92114  0.42316  0.39210  1.0000
  C   C361      1.0  0.91725  0.39790  0.31432  1.0000
  C  Sn26      1.0  0.94171  0.40036  0.23479  1.0000
  C  Sn27      1.0  0.97066  0.42864  0.23301  1.0000
  C   C362      1.0  0.97455  0.45388  0.31077  1.0000
  C  Sn28      1.0  0.95010  0.45144  0.39032  1.0000
  O  Te25      1.0  0.89638  0.42018  0.47087  1.0000
  O  Te26      1.0  0.93726  0.37479  0.15785  1.0000
  O  Te27      1.0  0.99543  0.43160  0.15415  1.0000
  O  Te28      1.0  0.95454  0.47699  0.46724  1.0000
  Mg  Mg13      1.0  0.97800  0.39026  0.06685  1.0000
  Mg  Mg14      1.0  0.91383  0.46154  0.55833  1.0000
  C  Sn29      1.0  0.90851  0.96885  0.33135  1.0000
  C   C363      1.0  0.92778  0.96332  0.24636  1.0000
  C  Sn30      1.0  0.91548  0.94399  0.13349  1.0000
  C  Sn31      1.0  0.88325  0.92990  0.10492  1.0000
  C   C364      1.0  0.86399  0.93543  0.18987  1.0000
  C  Sn32      1.0  0.87627  0.95476  0.30278  1.0000
  O  Te29      1.0  0.92131  0.98826  0.44362  1.0000
  O  Te30      1.0  0.93522  0.93880  0.05003  1.0000
  O  Te31      1.0  0.86954  0.91021  0.99254  1.0000
  O  Te32      1.0  0.85656  0.95995  0.38619  1.0000
  Mg  Mg15      1.0  0.90588  0.91029  0.90912  1.0000
  Mg  Mg16      1.0  0.88495  0.98820  0.52708  1.0000
  C  Sn33      1.0  0.26445  0.16028  0.14882  1.0000
  C   C365      1.0  0.28015  0.15274  0.24521  1.0000
  C  Sn34      1.0  0.26520  0.12371  0.30935  1.0000
  C  Sn35      1.0  0.23392  0.10174  0.27639  1.0000
  C   C366      1.0  0.21824  0.10928  0.18004  1.0000
  C  Sn36      1.0  0.23317  0.13831  0.11587  1.0000
  O  Te33      1.0  0.27985  0.18944  0.08597  1.0000
  O  Te34      1.0  0.28137  0.11672  0.40541  1.0000
  O  Te35      1.0  0.21852  0.07256  0.33934  1.0000
  O  Te36      1.0  0.21702  0.14531  0.01984  1.0000
  Mg  Mg17      1.0  0.25038  0.07391  0.46336  1.0000
  Mg  Mg18      1.0  0.24707  0.18783  0.96178  1.0000
  C  Sn37      1.0  0.95926  0.55436  0.35096  1.0000
  C   C367      1.0  0.93297  0.54076  0.26809  1.0000
  C  Sn38      1.0  0.92342  0.51199  0.20653  1.0000
  C  Sn39      1.0  0.94049  0.49649  0.22829  1.0000
  C   C368      1.0  0.96676  0.51009  0.31113  1.0000
  C  Sn40      1.0  0.97633  0.53885  0.37272  1.0000
  O  Te37      1.0  0.96838  0.58312  0.41148  1.0000
  O  Te38      1.0  0.89707  0.49886  0.12407  1.0000
  O  Te39      1.0  0.93135  0.46770  0.16768  1.0000
  O  Te40      1.0  0.00265  0.55198  0.45515  1.0000
  Mg  Mg19      1.0  0.89389  0.45927  0.06402  1.0000
  Mg  Mg20      1.0  0.00585  0.59156  0.51530  1.0000
  C  Sn41      1.0  0.96530  0.05639  0.33707  1.0000
  C   C369      1.0  0.96211  0.03425  0.24121  1.0000
  C  Sn42      1.0  0.94754  0.03200  0.11766  1.0000
  C  Sn43      1.0  0.93594  0.05232  0.08929  1.0000
  C   C370      1.0  0.93914  0.07446  0.18511  1.0000
  C  Sn44      1.0  0.95369  0.07672  0.30871  1.0000
  O  Te41      1.0  0.97994  0.05823  0.45991  1.0000
  O  Te42      1.0  0.94462  0.00966  0.02343  1.0000
  O  Te43      1.0  0.92037  0.05021  0.96634  1.0000
  O  Te44      1.0  0.95663  0.09904  0.40289  1.0000
  Mg  Mg21      1.0  0.92198  0.01598  0.87050  1.0000
  Mg  Mg22      1.0  0.97836  0.09250  0.55582  1.0000
  C  Sn45      1.0  0.07785  0.57672  0.38393  1.0000
  C   C371      1.0  0.08169  0.60210  0.30730  1.0000
  C  Sn46      1.0  0.05707  0.59988  0.23077  1.0000
  C  Sn47      1.0  0.02799  0.57173  0.23089  1.0000
  C   C372      1.0  0.02416  0.54638  0.30750  1.0000
  C  Sn48      1.0  0.04878  0.54857  0.38405  1.0000
  O  Te45      1.0  0.10278  0.57946  0.45970  1.0000
  O  Te46      1.0  0.06147  0.62556  0.15492  1.0000
  O  Te47      1.0  0.00305  0.56901  0.15503  1.0000
  O  Te48      1.0  0.04438  0.52291  0.45988  1.0000
  Mg  Mg23      1.0  0.02048  0.61042  0.06818  1.0000
  Mg  Mg24      1.0  0.08534  0.53803  0.54671  1.0000
  C  Sn49      1.0  0.56155  0.50407  0.92573  1.0000
  C   C373      1.0  0.54878  0.51842  0.84817  1.0000
  C  Sn50      1.0  0.56576  0.53830  0.74165  1.0000
  C  Sn51      1.0  0.59613  0.54395  0.71196  1.0000
  C   C374      1.0  0.60888  0.52960  0.78947  1.0000
  C  Sn52      1.0  0.59192  0.50972  0.89604  1.0000
  O  Te49      1.0  0.54508  0.48455  0.03173  1.0000
  O  Te50      1.0  0.55251  0.55238  0.66557  1.0000
  O  Te51      1.0  0.61352  0.56375  0.60585  1.0000
  O  Te52      1.0  0.60516  0.49564  0.97207  1.0000
  Mg  Mg25      1.0  0.58539  0.57747  0.53135  1.0000
  Mg  Mg26      1.0  0.57321  0.47080  0.10626  1.0000
  C  Sn53      1.0  0.49107  0.43820  0.17671  1.0000
  C   C375      1.0  0.48093  0.45174  0.27349  1.0000
  C  Sn54      1.0  0.46552  0.43530  0.39032  1.0000
  C  Sn55      1.0  0.46016  0.40469  0.41090  1.0000
  C   C376      1.0  0.47031  0.39116  0.31418  1.0000
  C  Sn56      1.0  0.48571  0.40759  0.19730  1.0000
  O  Te53      1.0  0.50642  0.45507  0.06068  1.0000
  O  Te54      1.0  0.45559  0.44932  0.48560  1.0000
  O  Te55      1.0  0.44480  0.38782  0.52706  1.0000
  O  Te56      1.0  0.49564  0.39359  0.10207  1.0000
  Mg  Mg27      1.0  0.43572  0.41693  0.62742  1.0000
  Mg  Mg28      1.0  0.51461  0.42569  0.96025  1.0000
  C  Sn57      1.0  0.49931  0.42201  0.71716  1.0000
  C   C377      1.0  0.47728  0.39652  0.79229  1.0000
  C  Sn58      1.0  0.45588  0.39931  0.87461  1.0000
  C  Sn59      1.0  0.45648  0.42817  0.88193  1.0000
  C   C378      1.0  0.47849  0.45364  0.80682  1.0000
  C  Sn60      1.0  0.49991  0.45087  0.72448  1.0000
  O  Te57      1.0  0.52048  0.41869  0.63553  1.0000
  O  Te58      1.0  0.43409  0.37351  0.94881  1.0000
  O  Te59      1.0  0.43528  0.43148  0.96365  1.0000
  O  Te60      1.0  0.52169  0.47665  0.65030  1.0000
  Mg  Mg29      1.0  0.41098  0.38988  0.04546  1.0000
  Mg  Mg30      1.0  0.54571  0.46056  0.55357  1.0000
  C  Sn61      1.0  0.42413  0.50221  0.88922  1.0000
  C   C379      1.0  0.39802  0.47860  0.82371  1.0000
  C  Sn62      1.0  0.39960  0.45444  0.75830  1.0000
  C  Sn63      1.0  0.42786  0.45385  0.75844  1.0000
  C   C380      1.0  0.45395  0.47745  0.82393  1.0000
  C  Sn64      1.0  0.45239  0.50162  0.88935  1.0000
  O  Te61      1.0  0.42202  0.52613  0.95397  1.0000
  O  Te62      1.0  0.37319  0.43110  0.69346  1.0000
  O  Te63      1.0  0.42995  0.42991  0.69361  1.0000
  O  Te64      1.0  0.47878  0.52494  0.95418  1.0000
  Mg  Mg31      1.0  0.38765  0.40342  0.61935  1.0000
  Mg  Mg32      1.0  0.46526  0.55289  0.02838  1.0000
  C  Sn65      1.0  0.73522  0.63227  0.38249  1.0000
  C   C381      1.0  0.75435  0.61949  0.36084  1.0000
  C  Sn66      1.0  0.74205  0.58949  0.30765  1.0000
  C  Sn67      1.0  0.70995  0.57191  0.27534  1.0000
  C   C382      1.0  0.69084  0.58470  0.29697  1.0000
  C  Sn68      1.0  0.70312  0.61469  0.35018  1.0000
  O  Te65      1.0  0.74802  0.66230  0.43575  1.0000
  O  Te66      1.0  0.76163  0.57720  0.28694  1.0000
  O  Te67      1.0  0.69716  0.54186  0.22204  1.0000
  O  Te68      1.0  0.68356  0.62698  0.37087  1.0000
  Mg  Mg33      1.0  0.73327  0.53529  0.21205  1.0000
  Mg  Mg34      1.0  0.71189  0.66890  0.44568  1.0000
  C  Sn69      1.0  0.72121  0.15410  0.92430  1.0000
  C   C383      1.0  0.69780  0.13079  0.84537  1.0000
  C  Sn70      1.0  0.70428  0.11186  0.76275  1.0000
  C  Sn71      1.0  0.73479  0.11629  0.75900  1.0000
  C   C384      1.0  0.75819  0.13958  0.83792  1.0000
  C  Sn72      1.0  0.75173  0.15853  0.92055  1.0000
  O  Te69      1.0  0.71513  0.17302  0.00616  1.0000
  O  Te70      1.0  0.68048  0.08872  0.68471  1.0000
  O  Te71      1.0  0.74178  0.09761  0.67705  1.0000
  O  Te72      1.0  0.77550  0.18165  0.99857  1.0000
  Mg  Mg35      1.0  0.70152  0.06921  0.58932  1.0000
  Mg  Mg36      1.0  0.75541  0.20143  0.09405  1.0000
  C  Sn73      1.0  0.28008  0.84754  0.92912  1.0000
  C   C385      1.0  0.30314  0.86931  0.84305  1.0000
  C  Sn74      1.0  0.29635  0.88683  0.75338  1.0000
  C  Sn75      1.0  0.26589  0.88252  0.74971  1.0000
  C   C386      1.0  0.24286  0.86078  0.83575  1.0000
  C  Sn76      1.0  0.24962  0.84324  0.92545  1.0000
  O  Te73      1.0  0.28831  0.83055  0.01797  1.0000
  O  Te74      1.0  0.31979  0.90844  0.66828  1.0000
  O  Te75      1.0  0.25860  0.89981  0.66076  1.0000
  O  Te76      1.0  0.22713  0.82191  0.01052  1.0000
  Mg  Mg37      1.0  0.29842  0.92640  0.56492  1.0000
  Mg  Mg38      1.0  0.24847  0.80395  0.11397  1.0000
  C  Sn77      1.0  0.12652  0.23756  0.83651  1.0000
  C   C387      1.0  0.10514  0.22258  0.73242  1.0000
  C  Sn78      1.0  0.10355  0.23967  0.62353  1.0000
  C  Sn79      1.0  0.12377  0.27242  0.61852  1.0000
  C   C388      1.0  0.14515  0.28738  0.72255  1.0000
  C  Sn80      1.0  0.14675  0.27031  0.83150  1.0000
  O  Te77      1.0  0.12771  0.22001  0.94438  1.0000
  O  Te78      1.0  0.08196  0.22418  0.52068  1.0000
  O  Te79      1.0  0.12257  0.28996  0.51053  1.0000
  O  Te80      1.0  0.16832  0.28578  0.93429  1.0000
  Mg  Mg39      1.0  0.08924  0.25826  0.39486  1.0000
  Mg  Mg40      1.0  0.16199  0.25199  0.06011  1.0000
  C  Sn81      1.0  0.89473  0.73439  0.67006  1.0000
  C   C389      1.0  0.87172  0.71884  0.76839  1.0000
  C  Sn82      1.0  0.85814  0.73403  0.83431  1.0000
  C  Sn83      1.0  0.86776  0.76542  0.80120  1.0000
  C   C390      1.0  0.89075  0.78095  0.70291  1.0000
  C  Sn84      1.0  0.90435  0.76578  0.63695  1.0000
  O  Te81      1.0  0.90798  0.71875  0.60544  1.0000
  O  Te82      1.0  0.83519  0.71800  0.93229  1.0000
  O  Te83      1.0  0.85448  0.78105  0.86592  1.0000
  O  Te84      1.0  0.92729  0.78179  0.53901  1.0000
  Mg  Mg41      1.0  0.82409  0.74931  0.99220  1.0000
  Mg  Mg42      1.0  0.93839  0.75050  0.47899  1.0000
  C  Sn85      1.0  0.10732  0.84979  0.78578  1.0000
  C   C391      1.0  0.13523  0.85402  0.73167  1.0000
  C  Sn86      1.0  0.15595  0.88186  0.66638  1.0000
  C  Sn87      1.0  0.14863  0.90597  0.65499  1.0000
  C   C392      1.0  0.12074  0.90173  0.70910  1.0000
  C  Sn88      1.0  0.10000  0.87390  0.77440  1.0000
  O  Te85      1.0  0.08696  0.82178  0.85064  1.0000
  O  Te86      1.0  0.18370  0.88554  0.61305  1.0000
  O  Te87      1.0  0.16902  0.93400  0.59006  1.0000
  O  Te88      1.0  0.07227  0.87021  0.82773  1.0000
  Mg  Mg43      1.0  0.20392  0.92794  0.53390  1.0000
  Mg  Mg44      1.0  0.05203  0.82783  0.90696  1.0000
  C  Sn89      1.0  0.76336  0.89029  0.83496  1.0000
  C   C393      1.0  0.77923  0.88180  0.74287  1.0000
  C  Sn90      1.0  0.76316  0.86079  0.63872  1.0000
  C  Sn91      1.0  0.73055  0.84802  0.62628  1.0000
  C   C394      1.0  0.71470  0.85652  0.71832  1.0000
  C  Sn92      1.0  0.73075  0.87752  0.82253  1.0000
  O  Te89      1.0  0.77990  0.91133  0.93830  1.0000
  O  Te90      1.0  0.77953  0.85264  0.54790  1.0000
  O  Te91      1.0  0.71401  0.82696  0.52284  1.0000
  O  Te92      1.0  0.71440  0.88567  0.91329  1.0000
  Mg  Mg45      1.0  0.74667  0.82309  0.42411  1.0000
  Mg  Mg46      1.0  0.74816  0.91550  0.03707  1.0000
  C  Sn93      1.0  0.42227  0.50042  0.38699  1.0000
  C   C395      1.0  0.39677  0.47700  0.31754  1.0000
  C  Sn94      1.0  0.39936  0.45381  0.24845  1.0000
  C  Sn95      1.0  0.42803  0.45402  0.24883  1.0000
  C   C396      1.0  0.45351  0.47744  0.31826  1.0000
  C  Sn96      1.0  0.45094  0.50064  0.38737  1.0000
  O  Te93      1.0  0.41915  0.52337  0.45538  1.0000
  O  Te94      1.0  0.37355  0.43063  0.17971  1.0000
  O  Te95      1.0  0.43113  0.43105  0.18035  1.0000
  O  Te96      1.0  0.47673  0.52380  0.45610  1.0000
  Mg  Mg47      1.0  0.38935  0.40441  0.10152  1.0000
  Mg  Mg48      1.0  0.46095  0.55002  0.53437  1.0000
  C  Sn97      1.0  0.56171  0.05337  0.18324  1.0000
  C   C397      1.0  0.54785  0.02924  0.27800  1.0000
  C  Sn98      1.0  0.56429  0.02925  0.39242  1.0000
  C  Sn99      1.0  0.59522  0.05391  0.41260  1.0000
  C   C398      1.0  0.60906  0.07802  0.31789  1.0000
  C  Sn100     1.0  0.59264  0.07803  0.20342  1.0000
  O  Te97      1.0  0.54483  0.05289  0.06960  1.0000
  O  Te98      1.0  0.54995  0.00487  0.48572  1.0000
  O  Te99      1.0  0.61209  0.05437  0.52636  1.0000
  O  Te100     1.0  0.60696  0.10240  0.11018  1.0000
  Mg  Mg49      1.0  0.58248  0.01594  0.62463  1.0000
  Mg  Mg50      1.0  0.57353  0.09109  0.97128  1.0000
  C  Sn101     1.0  0.42647  0.96020  0.43303  1.0000
  C   C399      1.0  0.45142  0.96524  0.34988  1.0000
  C  Sn102     1.0  0.44602  0.95094  0.22320  1.0000
  C  Sn103     1.0  0.41505  0.93119  0.17866  1.0000
  C   C400      1.0  0.39013  0.92616  0.26178  1.0000
  C  Sn104     1.0  0.39550  0.94045  0.38849  1.0000
  O  Te101     1.0  0.43241  0.97474  0.55928  1.0000
  O  Te102     1.0  0.47133  0.95633  0.14188  1.0000
  O  Te103     1.0  0.40912  0.91665  0.05231  1.0000
  O  Te104     1.0  0.37021  0.93507  0.46978  1.0000
  Mg  Mg51      1.0  0.45039  0.93099  0.97815  1.0000
  Mg  Mg52      1.0  0.39020  0.96015  0.63349  1.0000
  C  Sn105     1.0  0.58661  0.85371  0.76766  1.0000
  C   C401      1.0  0.61697  0.86253  0.80627  1.0000
  C  Sn106     1.0  0.63334  0.88760  0.89423  1.0000
  C  Sn107     1.0  0.61906  0.90420  0.94473  1.0000
  C   C402      1.0  0.58871  0.89538  0.90614  1.0000
  C  Sn108     1.0  0.57233  0.87031  0.81816  1.0000
  O  Te105     1.0  0.57068  0.82857  0.67963  1.0000
  O  Te106     1.0  0.66368  0.89598  0.93134  1.0000
  O  Te107     1.0  0.63594  0.92962  0.03282  1.0000
  O  Te108     1.0  0.54201  0.86192  0.78107  1.0000
  Mg  Mg53      1.0  0.67676  0.93213  0.05384  1.0000
  Mg  Mg54      1.0  0.52982  0.82603  0.65864  1.0000
  C  Sn109     1.0  0.56235  0.50907  0.43623  1.0000
  C   C403      1.0  0.54827  0.51930  0.34315  1.0000
  C  Sn110     1.0  0.56350  0.53369  0.22267  1.0000
  C  Sn111     1.0  0.59341  0.53793  0.19457  1.0000
  C   C404      1.0  0.60747  0.52771  0.28759  1.0000
  C  Sn112     1.0  0.59226  0.51332  0.40813  1.0000
  O  Te109     1.0  0.54669  0.49474  0.55603  1.0000
  O  Te110     1.0  0.54896  0.54373  0.13120  1.0000
  O  Te111     1.0  0.60906  0.55228  0.07464  1.0000
  O  Te112     1.0  0.60678  0.50328  0.49955  1.0000
  Mg  Mg55      1.0  0.57874  0.56169  0.98185  1.0000
  Mg  Mg56      1.0  0.57611  0.48504  0.64888  1.0000
  C  Sn113     1.0  0.14959  0.25815  0.26631  1.0000
  C   C405      1.0  0.14588  0.28173  0.20783  1.0000
  C  Sn114     1.0  0.11872  0.27441  0.13738  1.0000
  C  Sn115     1.0  0.09475  0.24286  0.12518  1.0000
  C   C406      1.0  0.09845  0.21930  0.18365  1.0000
  C  Sn116     1.0  0.12561  0.22660  0.25411  1.0000
  O  Te113     1.0  0.17693  0.26601  0.33629  1.0000
  O  Te114     1.0  0.11556  0.29838  0.07975  1.0000
  O  Te115     1.0  0.06739  0.23501  0.05512  1.0000
  O  Te116     1.0  0.12878  0.20264  0.31174  1.0000
  Mg  Mg57      1.0  0.07306  0.27566  0.99438  1.0000
  Mg  Mg58      1.0  0.17034  0.22508  0.39718  1.0000
  C  Sn117     1.0  0.28501  0.42928  0.33186  1.0000
  C   C407      1.0  0.30286  0.41706  0.38324  1.0000
  C  Sn118     1.0  0.29007  0.38487  0.39635  1.0000
  C  Sn119     1.0  0.25881  0.36447  0.35720  1.0000
  C   C408      1.0  0.24099  0.37669  0.30583  1.0000
  C  Sn120     1.0  0.25375  0.40888  0.29271  1.0000
  O  Te117     1.0  0.29827  0.46154  0.31963  1.0000
  O  Te118     1.0  0.30837  0.37321  0.44803  1.0000
  O  Te119     1.0  0.24556  0.33219  0.36947  1.0000
  O  Te120     1.0  0.23548  0.42054  0.24105  1.0000
  Mg  Mg59      1.0  0.27984  0.32752  0.44529  1.0000
  Mg  Mg60      1.0  0.26398  0.46622  0.24368  1.0000
  C  Sn121     1.0  0.50135  0.57698  0.71002  1.0000
  C   C409      1.0  0.52303  0.60249  0.78546  1.0000
  C  Sn122     1.0  0.54369  0.59957  0.87145  1.0000
  C  Sn123     1.0  0.54268  0.57056  0.88222  1.0000
  C   C410      1.0  0.52101  0.54507  0.80680  1.0000
  C  Sn124     1.0  0.50034  0.54796  0.72079  1.0000
  O  Te121     1.0  0.48092  0.58042  0.62468  1.0000
  O  Te122     1.0  0.56515  0.62541  0.94589  1.0000
  O  Te123     1.0  0.56313  0.56713  0.96765  1.0000
  O  Te124     1.0  0.47889  0.52215  0.64637  1.0000
  Mg  Mg61      1.0  0.58907  0.60935  0.04826  1.0000
  Mg  Mg62      1.0  0.45590  0.53845  0.54392  1.0000
  C  Sn125     1.0  0.11332  0.07572  0.63321  1.0000
  C   C411      1.0  0.13152  0.07118  0.72784  1.0000
  C  Sn126     1.0  0.11836  0.04461  0.80968  1.0000
  C  Sn127     1.0  0.08634  0.02209  0.79661  1.0000
  C   C412      1.0  0.06816  0.02663  0.70201  1.0000
  C  Sn128     1.0  0.08130  0.05321  0.62014  1.0000
  O  Te125     1.0  0.12697  0.10246  0.55245  1.0000
  O  Te126     1.0  0.13702  0.04058  0.90359  1.0000
  O  Te127     1.0  0.57370  0.99534  0.87747  1.0000
  O  Te128     1.0  0.06266  0.05723  0.52627  1.0000
  Mg  Mg63      1.0  0.10773  0.00032  0.99054  1.0000
  Mg  Mg64      1.0  0.09193  0.09747  0.43921  1.0000
  C  Sn129     1.0  0.95458  0.90557  0.08705  1.0000
  C   C413      1.0  0.95715  0.92824  0.17859  1.0000
  C  Sn130     1.0  0.94696  0.92016  0.31220  1.0000
  C  Sn131     1.0  0.93395  0.88878  0.35526  1.0000
  C   C414      1.0  0.93139  0.86613  0.26376  1.0000
  C  Sn132     1.0  0.94157  0.87418  0.13011  1.0000
  O  Te129     1.0  0.96400  0.91391  0.95396  1.0000
  O  Te130     1.0  0.94976  0.94324  0.40185  1.0000
  O  Te131     1.0  0.92361  0.88019  0.48846  1.0000
  O  Te132     1.0  0.93878  0.85113  0.04049  1.0000
  Mg  Mg65      1.0  0.93237  0.91999  0.57278  1.0000
  Mg  Mg66      1.0  0.95525  0.87409  0.86956  1.0000
  C  Sn133     1.0  0.71506  0.56990  0.82668  1.0000
  C   C415      1.0  0.69607  0.57993  0.88668  1.0000
  C  Sn134     1.0  0.70809  0.61134  0.91881  1.0000
  C  Sn135     1.0  0.73973  0.63318  0.89031  1.0000
  C   C416      1.0  0.75870  0.62315  0.83032  1.0000
  C  Sn136     1.0  0.74670  0.59174  0.79817  1.0000
  O  Te133     1.0  0.70255  0.53838  0.79541  1.0000
  O  Te134     1.0  0.68866  0.62080  0.97880  1.0000
  O  Te135     1.0  0.75223  0.66472  0.92163  1.0000
  O  Te136     1.0  0.76611  0.58227  0.73820  1.0000
  Mg  Mg67      1.0  0.71740  0.66651  0.00242  1.0000
  Mg  Mg68      1.0  0.73831  0.53684  0.71447  1.0000
  C  Sn137     1.0  0.50005  0.57750  0.22233  1.0000
  C   C417      1.0  0.52353  0.60320  0.29065  1.0000
  C  Sn138     1.0  0.54592  0.60039  0.36454  1.0000
  C  Sn139     1.0  0.54484  0.57128  0.37020  1.0000
  C   C418      1.0  0.52138  0.54560  0.30188  1.0000
  C  Sn140     1.0  0.49897  0.54839  0.22798  1.0000
  O  Te137     1.0  0.47791  0.58084  0.14907  1.0000
  O  Te138     1.0  0.56916  0.62641  0.43205  1.0000
  O  Te139     1.0  0.56701  0.56795  0.44353  1.0000
  O  Te140     1.0  0.47575  0.52239  0.16049  1.0000
  Mg  Mg69      1.0  0.59410  0.61017  0.51838  1.0000
  Mg  Mg70      1.0  0.45081  0.53861  0.07407  1.0000
  C  Sn141     1.0  0.10789  0.02949  0.29372  1.0000
  C   C419      1.0  0.12946  0.05469  0.21586  1.0000
  C  Sn142     1.0  0.11985  0.07166  0.13687  1.0000
  C  Sn143     1.0  0.08803  0.06327  0.13572  1.0000
  C   C420      1.0  0.06648  0.03809  0.21356  1.0000
  C  Sn144     1.0  0.07606  0.02111  0.29257  1.0000
  O  Te141     1.0  0.11801  0.01286  0.37194  1.0000
  O  Te142     1.0  0.14185  0.09675  0.05984  1.0000
  O  Te143     1.0  0.07792  0.07993  0.05740  1.0000
  O  Te144     1.0  0.55509  0.99603  0.36958  1.0000
  Mg  Mg71      1.0  0.11575  0.11198  0.96973  1.0000
  Mg  Mg72      1.0  0.58024  0.98053  0.45978  1.0000
