data_image0
_chemical_formula_structural       H208C328N32O4SnCSn2CSnTe4Mg2SnCSn2CSnTe4Mg2SnCSn2CSnTe4Mg2SnCSn2CSnTe4Mg2SnCSn2CSnTe4Mg2SnCSn2CSnTe4Mg2SnCSn2CSnTe4Mg2SnCSn2CSnTe4Mg2SnCSn2CSnTe4Mg2SnCSn2CSnTe4Mg2SnCSn2CSnTe4Mg2SnCSn2CSnTe4Mg2SnCSn2CSnTe4Mg2SnCSn2CSnTe4Mg2SnCSn2CSnTe4Mg2SnCSn2CSnTe4Mg2SnCSn2CSnTe4Mg2SnCSn2CSnTe4Mg2SnCSn2CSnTe4Mg2SnCSn2CSnTe4Mg2SnCSn2CSnTe4Mg2SnCSn2CSnTe4Mg2SnCSn2CSnTe4Mg2SnCSn2CSnTe4Mg2SnCSn2CSnTe4Mg2SnCSn2CSnTe4Mg2SnCSn2CSnTe4Mg2SnCSn2CSnTe4Mg2SnCSn2CSnTe4Mg2SnCSn2CSnTe4Mg2SnCSn2CSnTe4Mg2SnCSn2CSnTe4Mg2SnCSn2CSnTe4Mg2SnCSn2CSnTe4Mg2
_chemical_formula_sum              "H208 C396 N32 O4 Sn136 Te136 Mg68"
_cell_length_a       49.4025
_cell_length_b       49.4984
_cell_length_c       9.13589
_cell_angle_alpha    98.1492
_cell_angle_beta     96.6137
_cell_angle_gamma    55.1116

_symmetry_space_group_name_H-M    'P1'
_space_group_IT_number       1

loop_
  _space_group_symop_operation_xyz
  'x, y, z'

loop_
  _atom_site_type_symbol
  _atom_site_label
  _atom_site_symmetry_multiplicity
  _atom_site_fract_x
  _atom_site_fract_y
  _atom_site_fract_z
  _atom_site_occupancy
  H   H1        1.0  0.90068  0.30824  0.24666  1.0000
  H   H2        1.0  0.09559  0.67466  0.30662  1.0000
  H   H3        1.0  0.82093  0.29702  0.26227  1.0000
  H   H4        1.0  0.17651  0.68403  0.29076  1.0000
  H   H5        1.0  0.80009  0.39198  0.20542  1.0000
  H   H6        1.0  0.19469  0.58769  0.26052  1.0000
  H   H7        1.0  0.09425  0.63573  0.43399  1.0000
  H   H8        1.0  0.07828  0.59594  0.41881  1.0000
  H   H9        1.0  0.15170  0.53231  0.09708  1.0000
  H   H10       1.0  0.16811  0.57127  0.11390  1.0000
  H   H11       1.0  0.07730  0.72842  0.46141  1.0000
  H   H12       1.0  0.04303  0.78931  0.46217  1.0000
  H   H13       1.0  0.10412  0.78247  0.14056  1.0000
  H   H14       1.0  0.13850  0.72132  0.13771  1.0000
  H   H15       1.0  0.21695  0.65693  0.12833  1.0000
  H   H16       1.0  0.27602  0.63030  0.08600  1.0000
  H   H17       1.0  0.30186  0.54746  0.31083  1.0000
  H   H18       1.0  0.24284  0.57505  0.36327  1.0000
  H   H19       1.0  0.87397  0.45961  0.07289  1.0000
  H   H20       1.0  0.11140  0.52154  0.14043  1.0000
  H   H21       1.0  0.96905  0.14899  0.39679  1.0000
  H   H22       1.0  0.03543  0.84093  0.39601  1.0000
  H   H23       1.0  0.65601  0.39692  0.17888  1.0000
  H   H24       1.0  0.33411  0.58844  0.14675  1.0000
  H   H25       1.0  0.43306  0.55988  0.04844  1.0000
  H   H26       1.0  0.41698  0.61752  0.07084  1.0000
  H   H27       1.0  0.51730  0.53317  0.34298  1.0000
  H   H28       1.0  0.50059  0.59092  0.37002  1.0000
  H   H29       1.0  0.99188  0.95087  0.38028  1.0000
  H   H30       1.0  0.00566  0.89486  0.36975  1.0000
  H   H31       1.0  0.07943  0.86146  0.05348  1.0000
  H   H32       1.0  0.06453  0.91860  0.05958  1.0000
  H   H33       1.0  0.32090  0.80990  0.20329  1.0000
  H   H34       1.0  0.69036  0.17911  0.15839  1.0000
  H   H35       1.0  0.31829  0.89696  0.16883  1.0000
  H   H36       1.0  0.69349  0.08948  0.11963  1.0000
  H   H37       1.0  0.40982  0.80066  0.12329  1.0000
  H   H38       1.0  0.60084  0.18321  0.07944  1.0000
  H   H39       1.0  0.64671  0.23185  0.30797  1.0000
  H   H40       1.0  0.60731  0.29310  0.31327  1.0000
  H   H41       1.0  0.59218  0.22052  0.93014  1.0000
  H   H42       1.0  0.73199  0.15001  0.32020  1.0000
  H   H43       1.0  0.79266  0.11964  0.35180  1.0000
  H   H44       1.0  0.80406  0.03890  0.05206  1.0000
  H   H45       1.0  0.74305  0.06995  0.01439  1.0000
  H   H46       1.0  0.34270  0.91096  0.04598  1.0000
  H   H47       1.0  0.37354  0.93570  0.03002  1.0000
  H   H48       1.0  0.46318  0.84778  0.17160  1.0000
  H   H49       1.0  0.43206  0.82397  0.20135  1.0000
  H   H50       1.0  0.45085  0.64659  0.03816  1.0000
  H   H51       1.0  0.54591  0.33618  0.01063  1.0000
  H   H52       1.0  0.17364  0.91910  0.40846  1.0000
  H   H53       1.0  0.84476  0.07776  0.28879  1.0000
  H   H54       1.0  0.42245  0.93613  0.09302  1.0000
  H   H55       1.0  0.57998  0.05568  0.05333  1.0000
  H   H56       1.0  0.48589  0.04499  0.97621  1.0000
  H   H57       1.0  0.52583  0.93268  0.93765  1.0000
  H   H58       1.0  0.49097  0.09165  0.96293  1.0000
  H   H59       1.0  0.51051  0.89268  0.91098  1.0000
  H   H60       1.0  0.55673  0.06288  0.34773  1.0000
  H   H61       1.0  0.46044  0.93552  0.32058  1.0000
  H   H62       1.0  0.54979  0.01811  0.36830  1.0000
  H   H63       1.0  0.47581  0.97540  0.34786  1.0000
  H   H64       1.0  0.07912  0.92648  0.37073  1.0000
  H   H65       1.0  0.94433  0.03760  0.42298  1.0000
  H   H66       1.0  0.13434  0.91386  0.37087  1.0000
  H   H67       1.0  0.88800  0.05162  0.40883  1.0000
  H   H68       1.0  0.09691  0.99728  0.12334  1.0000
  H   H69       1.0  0.91084  0.98362  0.01729  1.0000
  H   H70       1.0  0.04138  0.00925  0.11862  1.0000
  H   H71       1.0  0.96858  0.96684  0.04440  1.0000
  H   H72       1.0  0.81858  0.89019  0.18910  1.0000
  H   H73       1.0  0.20882  0.08613  0.20475  1.0000
  H   H74       1.0  0.91208  0.79719  0.24423  1.0000
  H   H75       1.0  0.11319  0.17702  0.27931  1.0000
  H   H76       1.0  0.82580  0.79913  0.08354  1.0000
  H   H77       1.0  0.19152  0.17890  0.13377  1.0000
  H   H78       1.0  0.76742  0.89588  0.30299  1.0000
  H   H79       1.0  0.70855  0.91427  0.27040  1.0000
  H   H80       1.0  0.69824  0.86024  0.39341  1.0000
  H   H81       1.0  0.75726  0.83976  0.40504  1.0000
  H   H82       1.0  0.84011  0.90338  0.38984  1.0000
  H   H83       1.0  0.19069  0.07427  0.39265  1.0000
  H   H84       1.0  0.86484  0.93481  0.47888  1.0000
  H   H85       1.0  0.16659  0.04662  0.47350  1.0000
  H   H86       1.0  0.95381  0.86009  0.25742  1.0000
  H   H87       1.0  0.07311  0.11616  0.26567  1.0000
  H   H88       1.0  0.92852  0.82903  0.16127  1.0000
  H   H89       1.0  0.09735  0.14352  0.18042  1.0000
  H   H90       1.0  0.93376  0.74130  0.07917  1.0000
  H   H91       1.0  0.95640  0.68159  0.07533  1.0000
  H   H92       1.0  0.86727  0.70640  0.25460  1.0000
  H   H93       1.0  0.84489  0.76617  0.26275  1.0000
  H   H94       1.0  0.66937  0.89968  0.93555  1.0000
  H   H95       1.0  0.34415  0.08325  0.95877  1.0000
  H   H96       1.0  0.90956  0.94083  0.50170  1.0000
  H   H97       1.0  0.12179  0.04219  0.49239  1.0000
  H   H98       1.0  0.95325  0.63823  0.14012  1.0000
  H   H99       1.0  0.04602  0.33631  0.20832  1.0000
  H   H100      1.0  0.06010  0.44215  0.21412  1.0000
  H   H101      1.0  0.09852  0.38217  0.22885  1.0000
  H   H102      1.0  0.02137  0.37923  0.38315  1.0000
  H   H103      1.0  0.98286  0.43854  0.36562  1.0000
  H   H104      1.0  0.96777  0.45954  0.03688  1.0000
  H   H105      1.0  0.92557  0.44832  0.04148  1.0000
  H   H106      1.0  0.94006  0.51394  0.46635  1.0000
  H   H107      1.0  0.89893  0.50134  0.47454  1.0000
  H   H108      1.0  0.90978  0.32669  0.80053  1.0000
  H   H109      1.0  0.10692  0.69345  0.76432  1.0000
  H   H110      1.0  0.82706  0.31886  0.77689  1.0000
  H   H111      1.0  0.18586  0.70411  0.70953  1.0000
  H   H112      1.0  0.81194  0.41011  0.69738  1.0000
  H   H113      1.0  0.20562  0.60756  0.70298  1.0000
  H   H114      1.0  0.91111  0.37372  0.91098  1.0000
  H   H115      1.0  0.92933  0.41002  0.87759  1.0000
  H   H116      1.0  0.85834  0.45058  0.51482  1.0000
  H   H117      1.0  0.84028  0.41439  0.54622  1.0000
  H   H118      1.0  0.92200  0.28546  0.99771  1.0000
  H   H119      1.0  0.95472  0.22527  0.02729  1.0000
  H   H120      1.0  0.90223  0.21114  0.65005  1.0000
  H   H121      1.0  0.86832  0.27163  0.62367  1.0000
  H   H122      1.0  0.78355  0.33788  0.60797  1.0000
  H   H123      1.0  0.72313  0.36460  0.57398  1.0000
  H   H124      1.0  0.70557  0.45722  0.77012  1.0000
  H   H125      1.0  0.76620  0.43027  0.81006  1.0000
  H   H126      1.0  0.90564  0.45776  0.55756  1.0000
  H   H127      1.0  0.11756  0.54589  0.60532  1.0000
  H   H128      1.0  0.96289  0.16952  0.95864  1.0000
  H   H129      1.0  0.03354  0.85770  0.84868  1.0000
  H   H130      1.0  0.66790  0.40996  0.62633  1.0000
  H   H131      1.0  0.34702  0.59811  0.57874  1.0000
  H   H132      1.0  0.54146  0.52370  0.56598  1.0000
  H   H133      1.0  0.59813  0.50925  0.55289  1.0000
  H   H134      1.0  0.63450  0.43217  0.83833  1.0000
  H   H135      1.0  0.57815  0.44645  0.85088  1.0000
  H   H136      1.0  0.00433  0.05798  0.93987  1.0000
  H   H137      1.0  0.98333  0.97240  0.88332  1.0000
  H   H138      1.0  0.99284  0.11338  0.94229  1.0000
  H   H139      1.0  0.00554  0.91312  0.87349  1.0000
  H   H140      1.0  0.92939  0.13068  0.55125  1.0000
  H   H141      1.0  0.07257  0.89170  0.54383  1.0000
  H   H142      1.0  0.94111  0.07488  0.54822  1.0000
  H   H143      1.0  0.04970  0.95151  0.55509  1.0000
  H   H144      1.0  0.30838  0.81958  0.70246  1.0000
  H   H145      1.0  0.67840  0.19646  0.70397  1.0000
  H   H146      1.0  0.30353  0.90890  0.68085  1.0000
  H   H147      1.0  0.68010  0.10847  0.69882  1.0000
  H   H148      1.0  0.39639  0.81479  0.65467  1.0000
  H   H149      1.0  0.58848  0.20120  0.61814  1.0000
  H   H150      1.0  0.55405  0.28136  0.93146  1.0000
  H   H151      1.0  0.33508  0.90851  0.47215  1.0000
  H   H152      1.0  0.64923  0.09187  0.52899  1.0000
  H   H153      1.0  0.36770  0.93037  0.42655  1.0000
  H   H154      1.0  0.61590  0.06854  0.51245  1.0000
  H   H155      1.0  0.44211  0.87058  0.74962  1.0000
  H   H156      1.0  0.53760  0.15800  0.73852  1.0000
  H   H157      1.0  0.40926  0.84910  0.79718  1.0000
  H   H158      1.0  0.57152  0.18093  0.76116  1.0000
  H   H159      1.0  0.45774  0.65920  0.55550  1.0000
  H   H160      1.0  0.54047  0.35240  0.51389  1.0000
  H   H161      1.0  0.15284  0.92323  0.75932  1.0000
  H   H162      1.0  0.83139  0.08900  0.91320  1.0000
  H   H163      1.0  0.40867  0.94045  0.51163  1.0000
  H   H164      1.0  0.57192  0.06922  0.58174  1.0000
  H   H165      1.0  0.51479  0.94728  0.57013  1.0000
  H   H166      1.0  0.50692  0.90248  0.56011  1.0000
  H   H167      1.0  0.41180  0.97056  0.74697  1.0000
  H   H168      1.0  0.41941  0.01547  0.75796  1.0000
  H   H169      1.0  0.53664  0.99200  0.44830  1.0000
  H   H170      1.0  0.59758  0.95365  0.46077  1.0000
  H   H171      1.0  0.53170  0.96680  0.86892  1.0000
  H   H172      1.0  0.59258  0.92574  0.87748  1.0000
  H   H173      1.0  0.05992  0.96312  0.90428  1.0000
  H   H174      1.0  0.92150  0.08391  0.85112  1.0000
  H   H175      1.0  0.11557  0.95051  0.90486  1.0000
  H   H176      1.0  0.86576  0.09704  0.84438  1.0000
  H   H177      1.0  0.08317  0.01767  0.57094  1.0000
  H   H178      1.0  0.90001  0.00111  0.61851  1.0000
  H   H179      1.0  0.02597  0.03369  0.58808  1.0000
  H   H180      1.0  0.95599  0.98821  0.62138  1.0000
  H   H181      1.0  0.78932  0.90064  0.68730  1.0000
  H   H182      1.0  0.18057  0.11065  0.64354  1.0000
  H   H183      1.0  0.88431  0.80799  0.69959  1.0000
  H   H184      1.0  0.08594  0.20178  0.73137  1.0000
  H   H185      1.0  0.79791  0.80929  0.55224  1.0000
  H   H186      1.0  0.16571  0.20404  0.60933  1.0000
  H   H187      1.0  0.74009  0.91195  0.77234  1.0000
  H   H188      1.0  0.68080  0.93206  0.76151  1.0000
  H   H189      1.0  0.73012  0.85233  0.85987  1.0000
  H   H190      1.0  0.78901  0.83293  0.89554  1.0000
  H   H191      1.0  0.90807  0.75906  0.55081  1.0000
  H   H192      1.0  0.06211  0.25820  0.55883  1.0000
  H   H193      1.0  0.94002  0.69814  0.55588  1.0000
  H   H194      1.0  0.04191  0.31761  0.58256  1.0000
  H   H195      1.0  0.85305  0.70644  0.66386  1.0000
  H   H196      1.0  0.12745  0.29609  0.85707  1.0000
  H   H197      1.0  0.82130  0.76755  0.66822  1.0000
  H   H198      1.0  0.14689  0.23685  0.84077  1.0000
  H   H199      1.0  0.64210  0.90135  0.47312  1.0000
  H   H200      1.0  0.31801  0.11842  0.47625  1.0000
  H   H201      1.0  0.89331  0.93621  0.04800  1.0000
  H   H202      1.0  0.10183  0.06585  0.97913  1.0000
  H   H203      1.0  0.94516  0.65076  0.62850  1.0000
  H   H204      1.0  0.04793  0.36332  0.69699  1.0000
  H   H205      1.0  0.96506  0.53450  0.54383  1.0000
  H   H206      1.0  0.91666  0.59094  0.49481  1.0000
  H   H207      1.0  0.94420  0.63113  0.88425  1.0000
  H   H208      1.0  0.99097  0.57432  0.94006  1.0000
  C   C1        1.0  0.88109  0.44844  0.17849  1.0000
  C   C2        1.0  0.10510  0.53752  0.24516  1.0000
  C   C3        1.0  0.94977  0.15735  0.30733  1.0000
  C   C4        1.0  0.05262  0.82648  0.30588  1.0000
  C   C5        1.0  0.85156  0.35276  0.22446  1.0000
  C   C6        1.0  0.14389  0.62860  0.28632  1.0000
  C   C7        1.0  0.87431  0.31904  0.24484  1.0000
  C   C8        1.0  0.12197  0.66331  0.30155  1.0000
  C   C9        1.0  0.86347  0.29851  0.25346  1.0000
  C   C10       1.0  0.13342  0.68357  0.29973  1.0000
  C   C11       1.0  0.82928  0.31266  0.24972  1.0000
  C   C12       1.0  0.16745  0.66843  0.28695  1.0000
  C   C13       1.0  0.80606  0.34659  0.23610  1.0000
  C   C14       1.0  0.18992  0.63392  0.27223  1.0000
  C   C15       1.0  0.81777  0.36593  0.22085  1.0000
  C   C16       1.0  0.17766  0.61447  0.27315  1.0000
  C   C17       1.0  0.22535  0.61808  0.24915  1.0000
  C   C18       1.0  0.11090  0.72011  0.30101  1.0000
  C   C19       1.0  0.13271  0.60627  0.27662  1.0000
  C   C20       1.0  0.10672  0.61317  0.35944  1.0000
  C   C21       1.0  0.09800  0.59077  0.35289  1.0000
  C   C22       1.0  0.11458  0.56090  0.26074  1.0000
  C   C23       1.0  0.13975  0.55447  0.17411  1.0000
  C   C24       1.0  0.14890  0.57651  0.18343  1.0000
  C   C25       1.0  0.08303  0.73995  0.38854  1.0000
  C   C26       1.0  0.06369  0.77441  0.38919  1.0000
  C   C27       1.0  0.07117  0.79027  0.30075  1.0000
  C   C28       1.0  0.09853  0.77030  0.21006  1.0000
  C   C29       1.0  0.11783  0.73616  0.21054  1.0000
  C   C30       1.0  0.23545  0.63336  0.17195  1.0000
  C   C31       1.0  0.26868  0.61817  0.14637  1.0000
  C   C32       1.0  0.29285  0.58671  0.19339  1.0000
  C   C33       1.0  0.28293  0.57132  0.27074  1.0000
  C   C34       1.0  0.24985  0.58687  0.29898  1.0000
  C   C35       1.0  0.66465  0.41331  0.20317  1.0000
  C   C36       1.0  0.32765  0.57148  0.16820  1.0000
  C   C37       1.0  0.48136  0.50898  0.18894  1.0000
  C   C38       1.0  0.51156  0.47927  0.19378  1.0000
  C   C39       1.0  0.47640  0.54175  0.19360  1.0000
  C   C40       1.0  0.45764  0.60834  0.22231  1.0000
  C   C41       1.0  0.44839  0.56639  0.11638  1.0000
  C   C42       1.0  0.43927  0.59883  0.12837  1.0000
  C   C43       1.0  0.49563  0.55122  0.28048  1.0000
  C   C44       1.0  0.48634  0.58386  0.29586  1.0000
  C   C45       1.0  0.02755  0.93941  0.22356  1.0000
  C   C46       1.0  0.01079  0.93168  0.30623  1.0000
  C   C47       1.0  0.01901  0.89952  0.30189  1.0000
  C   C48       1.0  0.04489  0.87340  0.21488  1.0000
  C   C49       1.0  0.06021  0.88136  0.12438  1.0000
  C   C50       1.0  0.05178  0.91345  0.12872  1.0000
  C   C51       1.0  0.44121  0.65876  0.14787  1.0000
  C   C52       1.0  0.55581  0.32731  0.12089  1.0000
  C   C53       1.0  0.17699  0.92654  0.30767  1.0000
  C   C54       1.0  0.83824  0.06151  0.22495  1.0000
  C   C55       1.0  0.36784  0.80099  0.16574  1.0000
  C   C56       1.0  0.64330  0.18542  0.11798  1.0000
  C   C57       1.0  0.33379  0.82118  0.18868  1.0000
  C   C58       1.0  0.67775  0.16664  0.14158  1.0000
  C   C59       1.0  0.31556  0.85578  0.18800  1.0000
  C   C60       1.0  0.69639  0.13185  0.13847  1.0000
  C   C61       1.0  0.33213  0.87015  0.16396  1.0000
  C   C62       1.0  0.67967  0.11610  0.11482  1.0000
  C   C63       1.0  0.36637  0.85065  0.14209  1.0000
  C   C64       1.0  0.64513  0.13460  0.09664  1.0000
  C   C65       1.0  0.38350  0.81620  0.14166  1.0000
  C   C66       1.0  0.62757  0.16891  0.09512  1.0000
  C   C67       1.0  0.38473  0.86543  0.12515  1.0000
  C   C68       1.0  0.73277  0.11251  0.16349  1.0000
  C   C69       1.0  0.62210  0.22185  0.11875  1.0000
  C   C70       1.0  0.62651  0.24267  0.22517  1.0000
  C   C71       1.0  0.60435  0.27692  0.22952  1.0000
  C   C72       1.0  0.57768  0.29137  0.12513  1.0000
  C   C73       1.0  0.57382  0.27057  0.01621  1.0000
  C   C74       1.0  0.59526  0.23642  0.01522  1.0000
  C   C75       1.0  0.74753  0.12598  0.25891  1.0000
  C   C76       1.0  0.78171  0.10873  0.27786  1.0000
  C   C77       1.0  0.80270  0.07707  0.20418  1.0000
  C   C78       1.0  0.78805  0.06310  0.11128  1.0000
  C   C79       1.0  0.75384  0.08056  0.09140  1.0000
  C   C80       1.0  0.36891  0.89718  0.07728  1.0000
  C   C81       1.0  0.38642  0.91102  0.06658  1.0000
  C   C82       1.0  0.42070  0.89332  0.09841  1.0000
  C   C83       1.0  0.43679  0.86138  0.14405  1.0000
  C   C84       1.0  0.41908  0.84805  0.15888  1.0000
  C   C85       1.0  0.43820  0.90899  0.09192  1.0000
  C   C86       1.0  0.56637  0.08255  0.08390  1.0000
  C   C87       1.0  0.51789  0.02756  0.17051  1.0000
  C   C88       1.0  0.50118  0.95796  0.14343  1.0000
  C   C89       1.0  0.52361  0.99427  0.15903  1.0000
  C   C90       1.0  0.49848  0.98989  0.14941  1.0000
  C   C91       1.0  0.50019  0.04980  0.06204  1.0000
  C   C92       1.0  0.51210  0.93320  0.02412  1.0000
  C   C93       1.0  0.50327  0.07591  0.05320  1.0000
  C   C94       1.0  0.50341  0.91047  0.00806  1.0000
  C   C95       1.0  0.52591  0.07884  0.14945  1.0000
  C   C96       1.0  0.48269  0.91259  0.10927  1.0000
  C   C97       1.0  0.54067  0.05918  0.26881  1.0000
  C   C98       1.0  0.47460  0.93508  0.23647  1.0000
  C   C99       1.0  0.53634  0.03425  0.28002  1.0000
  C   C100      1.0  0.48392  0.95701  0.25272  1.0000
  C   C101      1.0  0.96040  0.00311  0.22805  1.0000
  C   C102      1.0  0.05493  0.96927  0.24604  1.0000
  C   C103      1.0  0.08241  0.94285  0.31934  1.0000
  C   C104      1.0  0.93693  0.02597  0.33283  1.0000
  C   C105      1.0  0.11401  0.93572  0.32049  1.0000
  C   C106      1.0  0.90479  0.03446  0.32279  1.0000
  C   C107      1.0  0.12021  0.95497  0.24847  1.0000
  C   C108      1.0  0.89407  0.02106  0.20234  1.0000
  C   C109      1.0  0.09278  0.98233  0.18168  1.0000
  C   C110      1.0  0.91816  0.99557  0.10640  1.0000
  C   C111      1.0  0.06120  0.98908  0.17949  1.0000
  C   C112      1.0  0.95073  0.98658  0.12025  1.0000
  C   C113      1.0  0.68083  0.89547  0.04822  1.0000
  C   C114      1.0  0.33794  0.08536  0.07351  1.0000
  C   C115      1.0  0.92615  0.91709  0.43490  1.0000
  C   C116      1.0  0.10407  0.06386  0.42919  1.0000
  C   C117      1.0  0.81799  0.84670  0.13291  1.0000
  C   C118      1.0  0.20416  0.13059  0.16456  1.0000
  C   C119      1.0  0.83312  0.86332  0.18197  1.0000
  C   C120      1.0  0.19225  0.11289  0.20451  1.0000
  C   C121      1.0  0.86728  0.84563  0.21711  1.0000
  C   C122      1.0  0.15899  0.12924  0.24025  1.0000
  C   C123      1.0  0.88611  0.81081  0.20819  1.0000
  C   C124      1.0  0.13813  0.16389  0.24096  1.0000
  C   C125      1.0  0.87108  0.79382  0.16352  1.0000
  C   C126      1.0  0.14966  0.18210  0.20445  1.0000
  C   C127      1.0  0.83746  0.81215  0.12111  1.0000
  C   C128      1.0  0.18235  0.16500  0.16271  1.0000
  C   C129      1.0  0.88731  0.75793  0.16720  1.0000
  C   C130      1.0  0.88244  0.86401  0.26889  1.0000
  C   C131      1.0  0.14566  0.11129  0.28271  1.0000
  C   C132      1.0  0.78220  0.86273  0.10230  1.0000
  C   C133      1.0  0.75914  0.88666  0.20536  1.0000
  C   C134      1.0  0.72634  0.89670  0.18837  1.0000
  C   C135      1.0  0.71566  0.88388  0.06573  1.0000
  C   C136      1.0  0.73832  0.86151  0.95791  1.0000
  C   C137      1.0  0.77128  0.85068  0.97752  1.0000
  C   C138      1.0  0.86466  0.89425  0.35732  1.0000
  C   C139      1.0  0.16508  0.08331  0.36290  1.0000
  C   C140      1.0  0.87866  0.91169  0.40868  1.0000
  C   C141      1.0  0.15154  0.06793  0.40931  1.0000
  C   C142      1.0  0.91102  0.89919  0.37399  1.0000
  C   C143      1.0  0.11822  0.07997  0.37613  1.0000
  C   C144      1.0  0.92890  0.86915  0.28467  1.0000
  C   C145      1.0  0.09876  0.10745  0.29318  1.0000
  C   C146      1.0  0.91478  0.85191  0.23264  1.0000
  C   C147      1.0  0.11235  0.12269  0.24701  1.0000
  C   C148      1.0  0.91925  0.73376  0.11850  1.0000
  C   C149      1.0  0.93182  0.70028  0.11564  1.0000
  C   C150      1.0  0.91286  0.69020  0.16140  1.0000
  C   C151      1.0  0.88125  0.71440  0.21430  1.0000
  C   C152      1.0  0.86891  0.74757  0.21745  1.0000
  C   C153      1.0  0.92676  0.65518  0.16149  1.0000
  C   C154      1.0  0.07205  0.32435  0.24693  1.0000
  C   C155      1.0  0.01740  0.44576  0.28252  1.0000
  C   C156      1.0  0.99113  0.48126  0.26495  1.0000
  C   C157      1.0  0.99612  0.50554  0.25773  1.0000
  C   C158      1.0  0.95779  0.48687  0.25262  1.0000
  C   C159      1.0  0.05105  0.42887  0.25076  1.0000
  C   C160      1.0  0.07304  0.39491  0.25970  1.0000
  C   C161      1.0  0.06242  0.37595  0.29840  1.0000
  C   C162      1.0  0.02967  0.39282  0.34198  1.0000
  C   C163      1.0  0.00797  0.42654  0.33267  1.0000
  C   C164      1.0  0.91058  0.47211  0.26247  1.0000
  C   C165      1.0  0.95185  0.46987  0.13042  1.0000
  C   C166      1.0  0.92833  0.46304  0.13404  1.0000
  C   C167      1.0  0.93648  0.50034  0.37070  1.0000
  C   C168      1.0  0.91332  0.49287  0.37653  1.0000
  C   C169      1.0  0.02282  0.97235  0.23505  1.0000
  C   C170      1.0  0.99175  0.00157  0.23292  1.0000
  C   C171      1.0  0.90644  0.45335  0.67307  1.0000
  C   C172      1.0  0.12022  0.55462  0.72040  1.0000
  C   C173      1.0  0.94909  0.17848  0.85336  1.0000
  C   C174      1.0  0.05383  0.84634  0.77242  1.0000
  C   C175      1.0  0.86217  0.37097  0.74917  1.0000
  C   C176      1.0  0.15526  0.64792  0.73799  1.0000
  C   C177      1.0  0.88332  0.33804  0.78485  1.0000
  C   C178      1.0  0.13294  0.68252  0.75045  1.0000
  C   C179      1.0  0.87091  0.31877  0.79008  1.0000
  C   C180      1.0  0.14343  0.70322  0.73659  1.0000
  C   C181      1.0  0.83680  0.33338  0.76647  1.0000
  C   C182      1.0  0.17711  0.68847  0.71383  1.0000
  C   C183      1.0  0.81514  0.36641  0.73475  1.0000
  C   C184      1.0  0.19984  0.65398  0.70290  1.0000
  C   C185      1.0  0.82834  0.38465  0.72469  1.0000
  C   C186      1.0  0.18835  0.63430  0.71402  1.0000
  C   C187      1.0  0.77927  0.38207  0.71206  1.0000
  C   C188      1.0  0.89254  0.28297  0.80965  1.0000
  C   C189      1.0  0.87403  0.39176  0.73212  1.0000
  C   C190      1.0  0.89957  0.39048  0.82417  1.0000
  C   C191      1.0  0.90941  0.41115  0.80752  1.0000
  C   C192      1.0  0.89443  0.43336  0.69718  1.0000
  C   C193      1.0  0.86938  0.43425  0.60338  1.0000
  C   C194      1.0  0.85917  0.41400  0.62183  1.0000
  C   C195      1.0  0.91773  0.26924  0.92072  1.0000
  C   C196      1.0  0.93622  0.23536  0.93697  1.0000
  C   C197      1.0  0.93083  0.21408  0.83896  1.0000
  C   C198      1.0  0.90607  0.22780  0.72575  1.0000
  C   C199      1.0  0.88716  0.26151  0.71248  1.0000
  C   C200      1.0  0.76659  0.36383  0.64616  1.0000
  C   C201      1.0  0.73269  0.37890  0.62603  1.0000
  C   C202      1.0  0.71044  0.41275  0.66939  1.0000
  C   C203      1.0  0.72299  0.43120  0.73437  1.0000
  C   C204      1.0  0.75681  0.41601  0.75554  1.0000
  C   C205      1.0  0.67508  0.42749  0.65427  1.0000
  C   C206      1.0  0.33911  0.58386  0.61964  1.0000
  C   C207      1.0  0.55530  0.48560  0.70630  1.0000
  C   C208      1.0  0.49300  0.52062  0.70625  1.0000
  C   C209      1.0  0.52280  0.49040  0.70894  1.0000
  C   C210      1.0  0.56170  0.50364  0.62613  1.0000
  C   C211      1.0  0.59351  0.49573  0.61882  1.0000
  C   C212      1.0  0.62050  0.46855  0.68816  1.0000
  C   C213      1.0  0.61421  0.45144  0.77451  1.0000
  C   C214      1.0  0.58239  0.45992  0.78308  1.0000
  C   C215      1.0  0.01506  0.96645  0.72190  1.0000
  C   C216      1.0  0.97320  0.06226  0.74513  1.0000
  C   C217      1.0  0.98796  0.07369  0.85393  1.0000
  C   C218      1.0  0.00268  0.95469  0.80800  1.0000
  C   C219      1.0  0.98111  0.10530  0.85646  1.0000
  C   C220      1.0  0.01539  0.92110  0.80200  1.0000
  C   C221      1.0  0.95891  0.12666  0.74971  1.0000
  C   C222      1.0  0.04168  0.89760  0.70897  1.0000
  C   C223      1.0  0.94576  0.11448  0.63575  1.0000
  C   C224      1.0  0.05300  0.90964  0.61817  1.0000
  C   C225      1.0  0.95254  0.08315  0.63466  1.0000
  C   C226      1.0  0.04002  0.94301  0.62417  1.0000
  C   C227      1.0  0.44559  0.67119  0.66127  1.0000
  C   C228      1.0  0.55002  0.34414  0.62515  1.0000
  C   C229      1.0  0.15966  0.93966  0.73446  1.0000
  C   C230      1.0  0.82447  0.07939  0.81022  1.0000
  C   C231      1.0  0.35474  0.81293  0.67994  1.0000
  C   C232      1.0  0.63110  0.20307  0.65963  1.0000
  C   C233      1.0  0.32046  0.83210  0.69636  1.0000
  C   C234      1.0  0.66530  0.18450  0.69208  1.0000
  C   C235      1.0  0.30136  0.86692  0.69822  1.0000
  C   C236      1.0  0.68326  0.15021  0.70207  1.0000
  C   C237      1.0  0.31746  0.88214  0.67944  1.0000
  C   C238      1.0  0.66638  0.13470  0.68422  1.0000
  C   C239      1.0  0.35165  0.86341  0.66298  1.0000
  C   C240      1.0  0.63196  0.15299  0.65688  1.0000
  C   C241      1.0  0.36986  0.82917  0.66627  1.0000
  C   C242      1.0  0.61500  0.18689  0.64216  1.0000
  C   C243      1.0  0.36983  0.87767  0.63853  1.0000
  C   C244      1.0  0.61283  0.13820  0.64622  1.0000
  C   C245      1.0  0.35818  0.90073  0.53432  1.0000
  C   C246      1.0  0.62510  0.10623  0.57733  1.0000
  C   C247      1.0  0.37663  0.91258  0.50776  1.0000
  C   C248      1.0  0.60618  0.09329  0.56665  1.0000
  C   C249      1.0  0.40703  0.90167  0.58507  1.0000
  C   C250      1.0  0.57427  0.11182  0.62265  1.0000
  C   C251      1.0  0.41898  0.87818  0.68791  1.0000
  C   C252      1.0  0.56191  0.14382  0.69201  1.0000
  C   C253      1.0  0.40056  0.86640  0.71399  1.0000
  C   C254      1.0  0.58100  0.15653  0.70377  1.0000
  C   C255      1.0  0.42320  0.91810  0.57159  1.0000
  C   C256      1.0  0.55656  0.09606  0.61364  1.0000
  C   C257      1.0  0.46769  0.98572  0.66434  1.0000
  C   C258      1.0  0.49678  0.01451  0.66627  1.0000
  C   C259      1.0  0.46870  0.01529  0.66657  1.0000
  C   C260      1.0  0.53041  0.98309  0.66068  1.0000
  C   C261      1.0  0.49230  0.95286  0.61199  1.0000
  C   C262      1.0  0.48804  0.92722  0.60607  1.0000
  C   C263      1.0  0.45824  0.93359  0.64767  1.0000
  C   C264      1.0  0.43411  0.96582  0.70608  1.0000
  C   C265      1.0  0.43877  0.99098  0.71335  1.0000
  C   C266      1.0  0.59948  0.93764  0.67248  1.0000
  C   C267      1.0  0.54917  0.97729  0.54146  1.0000
  C   C268      1.0  0.58320  0.95542  0.54759  1.0000
  C   C269      1.0  0.54614  0.96296  0.77753  1.0000
  C   C270      1.0  0.58033  0.94017  0.78320  1.0000
  C   C271      1.0  0.94409  0.03457  0.74087  1.0000
  C   C272      1.0  0.03879  0.99838  0.74101  1.0000
  C   C273      1.0  0.06486  0.97523  0.83130  1.0000
  C   C274      1.0  0.91732  0.06516  0.80341  1.0000
  C   C275      1.0  0.09658  0.96725  0.82817  1.0000
  C   C276      1.0  0.88566  0.07252  0.80139  1.0000
  C   C277      1.0  0.10428  0.98092  0.72801  1.0000
  C   C278      1.0  0.87865  0.04946  0.73635  1.0000
  C   C279      1.0  0.07802  0.00598  0.64556  1.0000
  C   C280      1.0  0.90506  0.01886  0.67366  1.0000
  C   C281      1.0  0.04586  0.01464  0.65348  1.0000
  C   C282      1.0  0.93681  0.01164  0.67580  1.0000
  C   C283      1.0  0.65192  0.90646  0.57970  1.0000
  C   C284      1.0  0.31103  0.11393  0.57567  1.0000
  C   C285      1.0  0.90454  0.91897  0.94734  1.0000
  C   C286      1.0  0.08292  0.08744  0.91777  1.0000
  C   C287      1.0  0.78930  0.85706  0.61465  1.0000
  C   C288      1.0  0.17739  0.15515  0.61691  1.0000
  C   C289      1.0  0.80426  0.87378  0.66839  1.0000
  C   C290      1.0  0.16487  0.13752  0.64978  1.0000
  C   C291      1.0  0.83865  0.85617  0.69532  1.0000
  C   C292      1.0  0.13184  0.15405  0.68855  1.0000
  C   C293      1.0  0.85802  0.82151  0.67033  1.0000
  C   C294      1.0  0.11101  0.18888  0.69476  1.0000
  C   C295      1.0  0.84351  0.80422  0.62070  1.0000
  C   C296      1.0  0.12352  0.20693  0.66854  1.0000
  C   C297      1.0  0.80938  0.82247  0.59027  1.0000
  C   C298      1.0  0.15625  0.18969  0.62731  1.0000
  C   C299      1.0  0.86252  0.76782  0.61139  1.0000
  C   C300      1.0  0.10653  0.24327  0.69408  1.0000
  C   C301      1.0  0.75327  0.87332  0.59393  1.0000
  C   C302      1.0  0.73098  0.90059  0.68934  1.0000
  C   C303      1.0  0.69793  0.91165  0.68502  1.0000
  C   C304      1.0  0.68615  0.89607  0.58340  1.0000
  C   C305      1.0  0.70771  0.87073  0.47936  1.0000
  C   C306      1.0  0.74077  0.85938  0.48582  1.0000
  C   C307      1.0  0.89610  0.74774  0.57873  1.0000
  C   C308      1.0  0.07620  0.26644  0.62622  1.0000
  C   C309      1.0  0.91390  0.71355  0.57972  1.0000
  C   C310      1.0  0.06503  0.29974  0.63851  1.0000
  C   C311      1.0  0.89849  0.69850  0.61090  1.0000
  C   C312      1.0  0.08421  0.31025  0.71619  1.0000
  C   C313      1.0  0.86463  0.71835  0.63849  1.0000
  C   C314      1.0  0.11351  0.28741  0.79203  1.0000
  C   C315      1.0  0.84709  0.75243  0.63964  1.0000
  C   C316      1.0  0.12426  0.25456  0.78180  1.0000
  C   C317      1.0  0.91822  0.66313  0.62639  1.0000
  C   C318      1.0  0.07427  0.34437  0.71918  1.0000
  C   C319      1.0  0.98179  0.55046  0.74248  1.0000
  C   C320      1.0  0.01566  0.48992  0.76238  1.0000
  C   C321      1.0  0.01416  0.51822  0.75788  1.0000
  C   C322      1.0  0.95967  0.55558  0.62158  1.0000
  C   C323      1.0  0.93264  0.58717  0.59327  1.0000
  C   C324      1.0  0.92863  0.61464  0.68251  1.0000
  C   C325      1.0  0.94894  0.60962  0.81145  1.0000
  C   C326      1.0  0.97480  0.57787  0.84238  1.0000
  C   C327      1.0  0.00721  0.00064  0.73612  1.0000
  C   C328      1.0  0.97656  0.03014  0.74201  1.0000
  N   N1        1.0  0.94341  0.13811  0.22312  1.0000
  N   N2        1.0  0.05839  0.83950  0.21071  1.0000
  N   N3        1.0  0.35015  0.54022  0.17269  1.0000
  N   N4        1.0  0.64370  0.44512  0.21735  1.0000
  N   N5        1.0  0.44508  0.64211  0.25421  1.0000
  N   N6        1.0  0.54948  0.34787  0.23756  1.0000
  N   N7        1.0  0.15205  0.94621  0.22352  1.0000
  N   N8        1.0  0.86082  0.03183  0.17262  1.0000
  N   N9        1.0  0.53643  0.09906  0.12652  1.0000
  N   N10       1.0  0.46996  0.89302  0.08797  1.0000
  N   N11       1.0  0.66396  0.90197  0.16170  1.0000
  N   N12       1.0  0.35913  0.07873  0.18342  1.0000
  N   N13       1.0  0.08421  0.34151  0.29123  1.0000
  N   N14       1.0  0.90996  0.64386  0.18850  1.0000
  N   N15       1.0  0.89580  0.45595  0.28622  1.0000
  N   N16       1.0  0.08948  0.53606  0.34470  1.0000
  N   N17       1.0  0.94661  0.15999  0.74529  1.0000
  N   N18       1.0  0.05937  0.86302  0.69817  1.0000
  N   N19       1.0  0.36067  0.55430  0.65826  1.0000
  N   N20       1.0  0.65293  0.45894  0.67656  1.0000
  N   N21       1.0  0.45140  0.65423  0.77025  1.0000
  N   N22       1.0  0.54597  0.36446  0.74002  1.0000
  N   N23       1.0  0.13708  0.97013  0.70974  1.0000
  N   N24       1.0  0.84633  0.05743  0.71715  1.0000
  N   N25       1.0  0.52584  0.11057  0.64257  1.0000
  N   N26       1.0  0.45156  0.90947  0.63481  1.0000
  N   N27       1.0  0.63380  0.92139  0.69382  1.0000
  N   N28       1.0  0.33137  0.10196  0.68844  1.0000
  N   N29       1.0  0.09542  0.35207  0.74578  1.0000
  N   N30       1.0  0.90568  0.64698  0.64291  1.0000
  N   N31       1.0  0.91829  0.46388  0.78152  1.0000
  N   N32       1.0  0.11137  0.54750  0.82874  1.0000
  O   O1        1.0  0.95480  0.90706  0.41621  1.0000
  O   O2        1.0  0.07510  0.07310  0.40764  1.0000
  O   O3        1.0  0.92895  0.91443  0.89661  1.0000
  O   O4        1.0  0.05362  0.09768  0.91449  1.0000
  C  Sn1       1.0  0.22375  0.88998  0.82123  1.0000
  C   C329      1.0  0.19976  0.92104  0.77261  1.0000
  C  Sn2       1.0  0.20806  0.93528  0.68056  1.0000
  C  Sn3       1.0  0.24104  0.91812  0.63610  1.0000
  C   C330      1.0  0.26501  0.88708  0.68469  1.0000
  C  Sn4       1.0  0.25672  0.87282  0.77677  1.0000
  O  Te1       1.0  0.21489  0.87622  0.91319  1.0000
  O  Te2       1.0  0.18365  0.96636  0.63342  1.0000
  O  Te3       1.0  0.24988  0.93192  0.54407  1.0000
  O  Te4       1.0  0.28111  0.84176  0.82387  1.0000
  Mg  Mg1       1.0  0.20787  0.97482  0.50899  1.0000
  Mg  Mg2       1.0  0.25692  0.83327  0.94824  1.0000
  C  Sn5       1.0  0.42783  0.55615  0.80476  1.0000
  C   C331      1.0  0.45588  0.52773  0.74187  1.0000
  C  Sn6       1.0  0.45272  0.50738  0.62894  1.0000
  C  Sn7       1.0  0.42087  0.51561  0.57772  1.0000
  C   C332      1.0  0.39285  0.54402  0.64058  1.0000
  C  Sn8       1.0  0.39598  0.56438  0.75354  1.0000
  O  Te5       1.0  0.43157  0.57614  0.91753  1.0000
  O  Te6       1.0  0.48112  0.47910  0.56781  1.0000
  O  Te7       1.0  0.41716  0.49560  0.46486  1.0000
  O  Te8       1.0  0.36760  0.59265  0.81463  1.0000
  Mg  Mg3       1.0  0.46326  0.45970  0.41666  1.0000
  Mg  Mg4       1.0  0.38544  0.61207  0.96573  1.0000
  C  Sn9       1.0  0.43674  0.71666  0.10730  1.0000
  C   C333      1.0  0.43019  0.69802  0.17945  1.0000
  C  Sn10      1.0  0.39957  0.71282  0.24095  1.0000
  C  Sn11      1.0  0.37499  0.74695  0.23002  1.0000
  C   C334      1.0  0.38154  0.76556  0.15789  1.0000
  C  Sn12      1.0  0.41216  0.75079  0.09638  1.0000
  O  Te9       1.0  0.46752  0.70135  0.04664  1.0000
  O  Te10      1.0  0.39360  0.69369  0.31258  1.0000
  O  Te11      1.0  0.34419  0.76225  0.29077  1.0000
  O  Te12      1.0  0.41813  0.76990  0.02476  1.0000
  Mg  Mg5       1.0  0.34783  0.72578  0.37741  1.0000
  Mg  Mg6       1.0  0.47325  0.75864  0.95983  1.0000
  C  Sn13      1.0  0.72206  0.41430  0.24751  1.0000
  C   C335      1.0  0.70346  0.40186  0.18853  1.0000
  C  Sn14      1.0  0.71830  0.36776  0.16440  1.0000
  C  Sn15      1.0  0.75244  0.34562  0.20004  1.0000
  C   C336      1.0  0.77102  0.35807  0.25900  1.0000
  C  Sn16      1.0  0.75620  0.39217  0.28315  1.0000
  O  Te13      1.0  0.70671  0.44848  0.27072  1.0000
  O  Te14      1.0  0.69920  0.35591  0.10528  1.0000
  O  Te15      1.0  0.76778  0.31142  0.17677  1.0000
  O  Te16      1.0  0.77528  0.40402  0.34225  1.0000
  Mg  Mg7       1.0  0.73135  0.30728  0.09393  1.0000
  Mg  Mg8       1.0  0.74315  0.45263  0.35371  1.0000
  C  Sn17      1.0  0.50639  0.43352  0.32698  1.0000
  C   C337      1.0  0.51875  0.44421  0.23615  1.0000
  C  Sn18      1.0  0.53882  0.42294  0.11987  1.0000
  C  Sn19      1.0  0.54667  0.39031  0.09376  1.0000
  C   C338      1.0  0.53431  0.37963  0.18453  1.0000
  C  Sn20      1.0  0.51424  0.40088  0.30086  1.0000
  O  Te17      1.0  0.48637  0.45520  0.44258  1.0000
  O  Te18      1.0  0.55090  0.43419  0.03059  1.0000
  O  Te19      1.0  0.57608  0.38944  0.97804  1.0000
  O  Te20      1.0  0.50216  0.38965  0.39009  1.0000
  Mg  Mg9       1.0  0.58655  0.41624  0.88690  1.0000
  Mg  Mg10      1.0  0.47587  0.42840  0.53375  1.0000
  C  Sn21      1.0  0.95647  0.06256  0.10490  1.0000
  C   C339      1.0  0.98348  0.03823  0.18497  1.0000
  C  Sn22      1.0  0.99833  0.04699  0.30375  1.0000
  C  Sn23      1.0  0.98591  0.08079  0.34341  1.0000
  C   C340      1.0  0.95891  0.10511  0.26339  1.0000
  C  Sn24      1.0  0.94405  0.09636  0.14456  1.0000
  O  Te21      1.0  0.95138  0.07405  0.98656  1.0000
  O  Te22      1.0  0.02532  0.02222  0.38210  1.0000
  O  Te23      1.0  0.00040  0.09010  0.46186  1.0000
  O  Te24      1.0  0.91708  0.12111  0.06625  1.0000
  Mg  Mg11      1.0  0.03658  0.04733  0.53471  1.0000
  Mg  Mg12      1.0  0.91515  0.11685  0.91368  1.0000
  C  Sn25      1.0  0.59680  0.43585  0.28142  1.0000
  C   C341      1.0  0.61018  0.44821  0.20726  1.0000
  C  Sn26      1.0  0.58951  0.47724  0.13704  1.0000
  C  Sn27      1.0  0.55474  0.49430  0.14110  1.0000
  C   C342      1.0  0.54138  0.48195  0.21525  1.0000
  C  Sn28      1.0  0.56203  0.45291  0.28548  1.0000
  O  Te25      1.0  0.61793  0.40679  0.35085  1.0000
  O  Te26      1.0  0.60346  0.48911  0.06356  1.0000
  O  Te27      1.0  0.53361  0.52339  0.07158  1.0000
  O  Te28      1.0  0.54809  0.44105  0.35895  1.0000
  Mg  Mg13      1.0  0.57378  0.55052  0.98576  1.0000
  Mg  Mg14      1.0  0.58712  0.40046  0.43685  1.0000
  C  Sn29      1.0  0.51380  0.44743  0.84449  1.0000
  C   C343      1.0  0.52861  0.45567  0.75449  1.0000
  C  Sn30      1.0  0.54581  0.43436  0.63172  1.0000
  C  Sn31      1.0  0.54824  0.40420  0.59814  1.0000
  C   C344      1.0  0.53343  0.39597  0.68809  1.0000
  C  Sn32      1.0  0.51623  0.41726  0.81091  1.0000
  O  Te29      1.0  0.49672  0.46910  0.96665  1.0000
  O  Te30      1.0  0.56042  0.44314  0.54341  1.0000
  O  Te31      1.0  0.56533  0.38252  0.47586  1.0000
  O  Te32      1.0  0.50162  0.40850  0.89917  1.0000
  Mg  Mg15      1.0  0.58101  0.40543  0.38901  1.0000
  Mg  Mg16      1.0  0.47164  0.42538  0.05354  1.0000
  C  Sn33      1.0  0.74090  0.14458  0.83986  1.0000
  C   C345      1.0  0.72330  0.13794  0.72689  1.0000
  C  Sn34      1.0  0.73861  0.10698  0.64576  1.0000
  C  Sn35      1.0  0.77222  0.08212  0.67828  1.0000
  C   C346      1.0  0.78980  0.08875  0.79120  1.0000
  C  Sn36      1.0  0.77451  0.11971  0.87238  1.0000
  O  Te33      1.0  0.72510  0.17570  0.91955  1.0000
  O  Te34      1.0  0.72051  0.10094  0.53331  1.0000
  O  Te35      1.0  0.78802  0.05097  0.59847  1.0000
  O  Te36      1.0  0.79259  0.12576  0.98479  1.0000
  Mg  Mg17      1.0  0.75295  0.05465  0.45587  1.0000
  Mg  Mg18      1.0  0.75080  0.15122  0.06234  1.0000
  C  Sn37      1.0  0.04613  0.50665  0.12650  1.0000
  C   C347      1.0  0.03887  0.49249  0.22405  1.0000
  C  Sn38      1.0  0.04809  0.49318  0.37421  1.0000
  C  Sn39      1.0  0.06491  0.50835  0.42802  1.0000
  C   C348      1.0  0.07216  0.52251  0.33050  1.0000
  C  Sn40      1.0  0.06295  0.52183  0.18030  1.0000
  O  Te37      1.0  0.04604  0.52650  0.97682  1.0000
  O  Te38      1.0  0.04057  0.47884  0.46959  1.0000
  O  Te39      1.0  0.07437  0.50931  0.57782  1.0000
  O  Te40      1.0  0.07045  0.53616  0.08495  1.0000
  Mg  Mg19      1.0  0.05858  0.48644  0.66412  1.0000
  Mg  Mg20      1.0  0.06182  0.54940  0.89043  1.0000
  C  Sn41      1.0  0.44114  0.04935  0.27409  1.0000
  C   C349      1.0  0.45964  0.01960  0.18540  1.0000
  C  Sn42      1.0  0.44452  0.01144  0.06557  1.0000
  C  Sn43      1.0  0.41019  0.03348  0.03367  1.0000
  C   C350      1.0  0.39170  0.06321  0.12231  1.0000
  C  Sn44      1.0  0.40680  0.07139  0.24218  1.0000
  O  Te41      1.0  0.45677  0.05701  0.39331  1.0000
  O  Te42      1.0  0.89982  0.00236  0.97853  1.0000
  O  Te43      1.0  0.40393  0.04661  0.91434  1.0000
  O  Te44      1.0  0.38781  0.10126  0.32918  1.0000
  Mg  Mg21      1.0  0.86726  0.00299  0.82822  1.0000
  Mg  Mg22      1.0  0.42034  0.10066  0.47946  1.0000
  C  Sn45      1.0  0.49337  0.57392  0.86580  1.0000
  C   C351      1.0  0.48547  0.55718  0.75190  1.0000
  C  Sn46      1.0  0.47086  0.57108  0.61828  1.0000
  C  Sn47      1.0  0.46401  0.60234  0.59805  1.0000
  C   C352      1.0  0.47190  0.61906  0.71190  1.0000
  C  Sn48      1.0  0.48652  0.60519  0.84557  1.0000
  O  Te45      1.0  0.50797  0.55956  0.99845  1.0000
  O  Te46      1.0  0.46318  0.55388  0.50604  1.0000
  O  Te47      1.0  0.44939  0.61670  0.46527  1.0000
  O  Te48      1.0  0.49420  0.62236  0.95775  1.0000
  Mg  Mg23      1.0  0.44354  0.58367  0.34534  1.0000
  Mg  Mg24      1.0  0.50448  0.57178  0.11846  1.0000
  C  Sn49      1.0  0.96869  0.58856  0.26984  1.0000
  C   C353      1.0  0.93753  0.60620  0.19816  1.0000
  C  Sn50      1.0  0.91983  0.59191  0.16092  1.0000
  C  Sn51      1.0  0.93356  0.55931  0.19613  1.0000
  C   C354      1.0  0.96469  0.54169  0.26778  1.0000
  C  Sn52      1.0  0.98241  0.55596  0.30505  1.0000
  O  Te49      1.0  0.98594  0.60333  0.30603  1.0000
  O  Te50      1.0  0.88873  0.61002  0.08925  1.0000
  O  Te51      1.0  0.91627  0.54454  0.15986  1.0000
  O  Te52      1.0  0.01349  0.53787  0.37670  1.0000
  Mg  Mg25      1.0  0.87480  0.57919  0.06283  1.0000
  Mg  Mg26      1.0  0.02744  0.56868  0.40323  1.0000
  C  Sn53      1.0  0.39729  0.55285  0.26341  1.0000
  C   C355      1.0  0.38309  0.53894  0.16920  1.0000
  C  Sn54      1.0  0.40301  0.50858  0.08679  1.0000
  C  Sn55      1.0  0.43786  0.49177  0.09886  1.0000
  C   C356      1.0  0.45204  0.50568  0.19304  1.0000
  C  Sn56      1.0  0.43214  0.53604  0.27548  1.0000
  O  Te53      1.0  0.37690  0.58322  0.34475  1.0000
  O  Te54      1.0  0.39761  0.51598  0.99331  1.0000
  O  Te55      1.0  0.45825  0.46138  0.01741  1.0000
  O  Te56      1.0  0.44689  0.54945  0.36893  1.0000
  Mg  Mg27      1.0  0.43585  0.47399  0.90526  1.0000
  Mg  Mg28      1.0  0.40868  0.59142  0.45708  1.0000
  C  Sn57      1.0  0.26269  0.14031  0.98122  1.0000
  C   C357      1.0  0.24212  0.11072  0.08736  1.0000
  C  Sn58      1.0  0.26230  0.09566  0.21083  1.0000
  C  Sn59      1.0  0.29432  0.08924  0.22865  1.0000
  C   C358      1.0  0.30551  0.09802  0.12257  1.0000
  C  Sn60      1.0  0.29472  0.13390  0.99904  1.0000
  O  Te57      1.0  0.24210  0.15536  0.85866  1.0000
  O  Te58      1.0  0.25056  0.08710  0.31544  1.0000
  O  Te59      1.0  0.31491  0.07419  0.35134  1.0000
  O  Te60      1.0  0.30644  0.14246  0.89449  1.0000
  Mg  Mg29      1.0  0.28781  0.06713  0.46356  1.0000
  Mg  Mg30      1.0  0.26920  0.16244  0.74637  1.0000
  C  Sn61      1.0  0.10414  0.78509  0.62873  1.0000
  C   C359      1.0  0.07638  0.80572  0.71429  1.0000
  C  Sn62      1.0  0.07113  0.79361  0.82938  1.0000
  C  Sn63      1.0  0.09412  0.76018  0.85964  1.0000
  C   C360      1.0  0.12186  0.73957  0.77413  1.0000
  C  Sn64      1.0  0.12712  0.75166  0.65899  1.0000
  O  Te61      1.0  0.10889  0.79773  0.51423  1.0000
  O  Te62      1.0  0.04319  0.81471  0.91337  1.0000
  O  Te63      1.0  0.08935  0.74756  0.97425  1.0000
  O  Te64      1.0  0.15504  0.73059  0.57505  1.0000
  Mg  Mg31      1.0  0.03819  0.76516  0.05756  1.0000
  Mg  Mg32      1.0  0.15071  0.75930  0.43089  1.0000
  C  Sn65      1.0  0.88485  0.38358  0.32562  1.0000
  C   C361      1.0  0.86086  0.38025  0.24585  1.0000
  C  Sn66      1.0  0.84487  0.39700  0.11971  1.0000
  C  Sn67      1.0  0.85303  0.41748  0.07225  1.0000
  C   C362      1.0  0.87701  0.42080  0.15198  1.0000
  C  Sn68      1.0  0.89302  0.40406  0.27815  1.0000
  O  Te65      1.0  0.90053  0.36660  0.45138  1.0000
  O  Te66      1.0  0.82096  0.39330  0.04181  1.0000
  O  Te67      1.0  0.84670  0.45528  0.94637  1.0000
  O  Te68      1.0  0.91692  0.40775  0.35601  1.0000
  Mg  Mg33      1.0  0.81585  0.44229  0.87736  1.0000
  Mg  Mg34      1.0  0.93142  0.37957  0.52042  1.0000
  C  Sn69      1.0  0.97633  0.44857  0.69756  1.0000
  C   C363      1.0  0.94631  0.46776  0.76820  1.0000
  C  Sn70      1.0  0.93347  0.50066  0.82076  1.0000
  C  Sn71      1.0  0.95098  0.51468  0.80226  1.0000
  C   C364      1.0  0.98097  0.49549  0.73164  1.0000
  C  Sn72      1.0  0.99384  0.46259  0.67905  1.0000
  O  Te69      1.0  0.98871  0.41574  0.64587  1.0000
  O  Te70      1.0  0.90342  0.51936  0.89107  1.0000
  O  Te71      1.0  0.93857  0.54754  0.85402  1.0000
  O  Te72      1.0  0.02387  0.44390  0.60877  1.0000
  Mg  Mg35      1.0  0.89669  0.56297  0.94236  1.0000
  Mg  Mg36      1.0  0.03061  0.40029  0.55737  1.0000
  C  Sn73      1.0  0.22703  0.15016  0.45732  1.0000
  C   C365      1.0  0.21545  0.13685  0.53699  1.0000
  C  Sn74      1.0  0.23544  0.11632  0.64807  1.0000
  C  Sn75      1.0  0.26766  0.10895  0.68026  1.0000
  C   C366      1.0  0.27922  0.12225  0.60064  1.0000
  C  Sn76      1.0  0.25925  0.14278  0.48952  1.0000
  O  Te73      1.0  0.20662  0.17063  0.34675  1.0000
  O  Te74      1.0  0.22333  0.10330  0.72618  1.0000
  O  Te75      1.0  0.28807  0.08846  0.79093  1.0000
  O  Te76      1.0  0.27134  0.15580  0.41145  1.0000
  Mg  Mg37      1.0  0.26046  0.07671  0.86670  1.0000
  Mg  Mg38      1.0  0.23423  0.18241  0.27097  1.0000
  C  Sn77      1.0  0.09264  0.24393  0.12714  1.0000
  C   C367      1.0  0.12546  0.22216  0.17501  1.0000
  C  Sn78      1.0  0.14137  0.23377  0.27246  1.0000
  C  Sn79      1.0  0.12411  0.26785  0.32321  1.0000
  C   C368      1.0  0.09131  0.28960  0.27537  1.0000
  C  Sn80      1.0  0.07538  0.27801  0.17789  1.0000
  O  Te77      1.0  0.07723  0.23177  0.02971  1.0000
  O  Te78      1.0  0.17420  0.21153  0.31873  1.0000
  O  Te79      1.0  0.13956  0.27999  0.42071  1.0000
  O  Te80      1.0  0.04257  0.30022  0.13165  1.0000
  Mg  Mg39      1.0  0.18450  0.24000  0.45211  1.0000
  Mg  Mg40      1.0  0.04161  0.29260  0.99834  1.0000
  C  Sn81      1.0  0.38696  0.05515  0.55022  1.0000
  C   C369      1.0  0.36787  0.07935  0.66219  1.0000
  C  Sn82      1.0  0.38241  0.08985  0.77490  1.0000
  C  Sn83      1.0  0.41674  0.07588  0.77569  1.0000
  C   C370      1.0  0.43580  0.05170  0.66376  1.0000
  C  Sn84      1.0  0.42129  0.04118  0.55101  1.0000
  O  Te81      1.0  0.37190  0.04503  0.43863  1.0000
  O  Te82      1.0  0.36282  0.11407  0.88567  1.0000
  O  Te83      1.0  0.43179  0.08603  0.88741  1.0000
  O  Te84      1.0  0.44085  0.01698  0.44028  1.0000
  Mg  Mg41      1.0  0.38535  0.09891  0.01389  1.0000
  Mg  Mg42      1.0  0.40898  0.01132  0.31197  1.0000
  C  Sn85      1.0  0.61604  0.05372  0.02742  1.0000
  C   C371      1.0  0.58698  0.06753  0.10126  1.0000
  C  Sn86      1.0  0.56986  0.10038  0.16273  1.0000
  C  Sn87      1.0  0.58202  0.11983  0.15005  1.0000
  C   C372      1.0  0.61106  0.10602  0.07622  1.0000
  C  Sn88      1.0  0.62820  0.07318  0.01474  1.0000
  O  Te85      1.0  0.64212  0.04165  0.96682  1.0000
  O  Te86      1.0  0.54086  0.11364  0.23608  1.0000
  O  Te87      1.0  0.56528  0.15274  0.21073  1.0000
  O  Te88      1.0  0.66654  0.08073  0.94141  1.0000
  Mg  Mg43      1.0  0.52689  0.15964  0.30008  1.0000
  Mg  Mg44      1.0  0.68053  0.03475  0.87730  1.0000
  C  Sn89      1.0  0.06710  0.42851  0.63702  1.0000
  C   C373      1.0  0.04449  0.45173  0.74193  1.0000
  C  Sn90      1.0  0.04338  0.44208  0.87636  1.0000
  C  Sn91      1.0  0.06534  0.40852  0.90660  1.0000
  C   C374      1.0  0.08793  0.38533  0.80174  1.0000
  C  Sn92      1.0  0.08906  0.39495  0.66727  1.0000
  O  Te89      1.0  0.06778  0.43871  0.50338  1.0000
  O  Te90      1.0  0.02055  0.46574  0.97949  1.0000
  O  Te91      1.0  0.05527  0.37752  0.04038  1.0000
  O  Te92      1.0  0.11187  0.37132  0.56418  1.0000
  Mg  Mg45      1.0  0.01977  0.41893  0.14561  1.0000
  Mg  Mg46      1.0  0.10332  0.39729  0.39807  1.0000
  C  Sn93      1.0  0.27446  0.64121  0.60001  1.0000
  C   C375      1.0  0.30018  0.61196  0.65832  1.0000
  C  Sn94      1.0  0.29349  0.59232  0.72104  1.0000
  C  Sn95      1.0  0.26041  0.60212  0.72548  1.0000
  C   C376      1.0  0.23471  0.63135  0.66717  1.0000
  C  Sn96      1.0  0.24138  0.65101  0.60445  1.0000
  O  Te93      1.0  0.28173  0.66046  0.53784  1.0000
  O  Te94      1.0  0.31962  0.56319  0.77868  1.0000
  O  Te95      1.0  0.25316  0.58284  0.78772  1.0000
  O  Te96      1.0  0.21528  0.68012  0.54682  1.0000
  Mg  Mg47      1.0  0.29718  0.54529  0.85178  1.0000
  Mg  Mg48      1.0  0.23768  0.69803  0.47363  1.0000
  C  Sn97      1.0  0.24436  0.88544  0.38810  1.0000
  C   C377      1.0  0.21738  0.91187  0.31731  1.0000
  C  Sn98      1.0  0.22087  0.91933  0.18179  1.0000
  C  Sn99      1.0  0.25199  0.89997  0.11558  1.0000
  C   C378      1.0  0.27895  0.87355  0.18635  1.0000
  C  Sn100     1.0  0.27547  0.86607  0.32189  1.0000
  O  Te97      1.0  0.24029  0.87843  0.52352  1.0000
  O  Te98      1.0  0.19354  0.94589  0.11315  1.0000
  O  Te99      1.0  0.26541  0.92782  0.98006  1.0000
  O  Te100     1.0  0.30278  0.83954  0.39050  1.0000
  Mg  Mg49      1.0  0.22084  0.96647  0.92965  1.0000
  Mg  Mg50      1.0  0.28488  0.83973  0.57395  1.0000
  C  Sn101     1.0  0.87859  0.23360  0.20204  1.0000
  C   C379      1.0  0.88139  0.25859  0.27711  1.0000
  C  Sn102     1.0  0.91084  0.25074  0.35345  1.0000
  C  Sn103     1.0  0.93808  0.21722  0.35472  1.0000
  C   C380      1.0  0.93527  0.19225  0.27967  1.0000
  C  Sn104     1.0  0.90582  0.20007  0.20331  1.0000
  O  Te101     1.0  0.84891  0.24201  0.12644  1.0000
  O  Te102     1.0  0.91304  0.27616  0.42772  1.0000
  O  Te103     1.0  0.96777  0.20883  0.43041  1.0000
  O  Te104     1.0  0.90362  0.17468  0.12906  1.0000
  Mg  Mg51      1.0  0.95869  0.25222  0.51486  1.0000
  Mg  Mg52      1.0  0.85799  0.19859  0.04182  1.0000
  C  Sn105     1.0  0.60760  0.96290  0.13023  1.0000
  C   C381      1.0  0.62679  0.93085  0.17469  1.0000
  C  Sn106     1.0  0.61208  0.91462  0.19532  1.0000
  C  Sn107     1.0  0.57748  0.93074  0.17092  1.0000
  C   C382      1.0  0.55831  0.96276  0.12647  1.0000
  C  Sn108     1.0  0.57299  0.97902  0.10584  1.0000
  O  Te105     1.0  0.62283  0.97865  0.11027  1.0000
  O  Te106     1.0  0.63178  0.88259  0.23984  1.0000
  O  Te107     1.0  0.56226  0.91495  0.19092  1.0000
  O  Te108     1.0  0.12640  0.01102  0.06132  1.0000
  Mg  Mg53      1.0  0.59957  0.87140  0.25225  1.0000
  Mg  Mg54      1.0  0.15859  0.02223  0.04880  1.0000
  C  Sn109     1.0  0.14326  0.09768  0.80478  1.0000
  C   C383      1.0  0.12600  0.12428  0.71749  1.0000
  C  Sn110     1.0  0.09159  0.14237  0.70135  1.0000
  C  Sn111     1.0  0.07407  0.13371  0.77404  1.0000
  C   C384      1.0  0.09133  0.10713  0.86128  1.0000
  C  Sn112     1.0  0.12574  0.08902  0.87747  1.0000
  O  Te109     1.0  0.17766  0.07995  0.81936  1.0000
  O  Te110     1.0  0.07488  0.16885  0.61347  1.0000
  O  Te111     1.0  0.03965  0.15148  0.75938  1.0000
  O  Te112     1.0  0.14245  0.06256  0.96531  1.0000
  Mg  Mg55      1.0  0.02798  0.18550  0.62780  1.0000
  Mg  Mg56      1.0  0.18935  0.04591  0.95111  1.0000
  C  Sn113     1.0  0.40438  0.75099  0.54210  1.0000
  C   C385      1.0  0.37666  0.77166  0.62783  1.0000
  C  Sn114     1.0  0.37243  0.76017  0.74861  1.0000
  C  Sn115     1.0  0.39642  0.72734  0.78453  1.0000
  C   C386      1.0  0.42413  0.70669  0.69885  1.0000
  C  Sn116     1.0  0.42837  0.71815  0.57802  1.0000
  O  Te113     1.0  0.40810  0.76299  0.42186  1.0000
  O  Te114     1.0  0.34450  0.78130  0.83265  1.0000
  O  Te115     1.0  0.39268  0.71535  0.90489  1.0000
  O  Te116     1.0  0.45628  0.69705  0.49404  1.0000
  Mg  Mg57      1.0  0.35048  0.75354  0.98584  1.0000
  Mg  Mg58      1.0  0.45034  0.72479  0.34087  1.0000
  C  Sn117     1.0  0.15167  0.59558  0.60126  1.0000
  C   C387      1.0  0.14208  0.62316  0.70293  1.0000
  C  Sn118     1.0  0.12890  0.62637  0.83664  1.0000
  C  Sn119     1.0  0.12525  0.60148  0.86948  1.0000
  C   C388      1.0  0.13484  0.57392  0.76787  1.0000
  C  Sn120     1.0  0.14802  0.57069  0.63410  1.0000
  O  Te117     1.0  0.16479  0.59288  0.46828  1.0000
  O  Te118     1.0  0.11947  0.65418  0.93651  1.0000
  O  Te119     1.0  0.10274  0.58339  0.00259  1.0000
  O  Te120     1.0  0.15744  0.54290  0.53429  1.0000
  Mg  Mg59      1.0  0.09352  0.62584  0.10298  1.0000
  Mg  Mg60      1.0  0.17404  0.55040  0.36782  1.0000
  C  Sn121     1.0  0.60787  0.26826  0.78003  1.0000
  C   C389      1.0  0.60681  0.24388  0.68691  1.0000
  C  Sn122     1.0  0.58878  0.25144  0.55190  1.0000
  C  Sn123     1.0  0.57146  0.28403  0.50900  1.0000
  C   C390      1.0  0.57253  0.30839  0.60208  1.0000
  C  Sn124     1.0  0.59055  0.30085  0.73713  1.0000
  O  Te121     1.0  0.62605  0.26015  0.91449  1.0000
  O  Te122     1.0  0.58809  0.22665  0.46069  1.0000
  O  Te123     1.0  0.55327  0.29213  0.37441  1.0000
  O  Te124     1.0  0.59125  0.32561  0.82830  1.0000
  Mg  Mg61      1.0  0.55987  0.24985  0.28823  1.0000
  Mg  Mg62      1.0  0.61010  0.28163  0.00074  1.0000
  C  Sn125     1.0  0.47711  0.09716  0.63075  1.0000
  C   C391      1.0  0.50580  0.09514  0.68468  1.0000
  C  Sn126     1.0  0.53396  0.06512  0.72495  1.0000
  C  Sn127     1.0  0.53345  0.03651  0.71096  1.0000
  C   C392      1.0  0.50477  0.03854  0.65704  1.0000
  C  Sn128     1.0  0.47659  0.06855  0.61676  1.0000
  O  Te125     1.0  0.44924  0.12743  0.59114  1.0000
  O  Te126     1.0  0.56235  0.06372  0.77863  1.0000
  O  Te127     1.0  0.98826  0.00623  0.75062  1.0000
  O  Te128     1.0  0.44822  0.06996  0.56308  1.0000
  Mg  Mg63      1.0  0.02099  0.01682  0.81800  1.0000
  Mg  Mg64      1.0  0.41648  0.11684  0.52361  1.0000
  C  Sn129     1.0  0.83807  0.90940  0.86839  1.0000
  C   C393      1.0  0.84786  0.88469  0.75088  1.0000
  C  Sn130     1.0  0.88022  0.86628  0.70382  1.0000
  C  Sn131     1.0  0.90327  0.87269  0.77577  1.0000
  C   C394      1.0  0.89348  0.89738  0.89321  1.0000
  C  Sn132     1.0  0.86112  0.91581  0.94034  1.0000
  O  Te129     1.0  0.80559  0.92750  0.91359  1.0000
  O  Te130     1.0  0.88943  0.84171  0.58606  1.0000
  O  Te131     1.0  0.93577  0.85456  0.73046  1.0000
  O  Te132     1.0  0.84254  0.91954  0.05804  1.0000
  Mg  Mg65      1.0  0.93649  0.82369  0.56497  1.0000
  Mg  Mg66      1.0  0.79549  0.93757  0.07927  1.0000
  C  Sn133     1.0  0.05052  0.56168  0.74826  1.0000
  C   C395      1.0  0.08227  0.54352  0.81401  1.0000
  C  Sn134     1.0  0.09669  0.51088  0.84318  1.0000
  C  Sn135     1.0  0.07900  0.49606  0.80578  1.0000
  C   C396      1.0  0.04727  0.51421  0.74005  1.0000
  C  Sn136     1.0  0.03283  0.54686  0.71086  1.0000
  O  Te133     1.0  0.03659  0.59428  0.72009  1.0000
  O  Te134     1.0  0.12847  0.49323  0.90904  1.0000
  O  Te135     1.0  0.09296  0.46343  0.83401  1.0000
  O  Te136     1.0  0.00107  0.56450  0.64502  1.0000
  Mg  Mg67      1.0  0.13690  0.44953  0.92531  1.0000
  Mg  Mg68      1.0  0.99263  0.60819  0.62863  1.0000
