data_image0
_chemical_formula_structural       H72C124N32O4SnCSn2CSnTe4Mg2SnCSn2CSnTe4Mg2SnCSn2CSnTe4Mg2SnCSn2CSnTe4Mg2SnCSn2CSnTe4Mg2SnCSn2CSnTe4Mg2SnCSn2CSnTe4Mg2SnCSn2CSnTe4Mg2SnCSn2CSnTe4Mg2SnCSn2CSnTe4Mg2SnCSn2CSnTe4Mg2SnCSn2CSnTe4Mg2SnCSn2CSnTe4Mg2SnCSn2CSnTe4Mg2SnCSn2CSnTe4Mg2SnCSn2CSnTe4Mg2SnCSn2CSnTe4Mg2SnCSn2CSnTe4Mg2SnCSn2CSnTe4Mg2SnCSn2CSnTe4Mg2SnCSn2CSnTe4Mg2SnCSn2CSnTe4Mg2SnCSn2CSnTe4Mg2SnCSn2CSnTe4Mg2SnCSn2CSnTe4Mg2SnCSn2CSnTe4Mg2SnCSn2CSnTe4Mg2SnCSn2CSnTe4Mg2SnCSn2CSnTe4Mg2SnCSn2CSnTe4Mg2SnCSn2CSnTe4Mg2SnCSn2CSnTe4Mg2SnCSn2CSnTe4Mg2SnCSn2CSnTe4Mg2SnCSn2CSnTe4Mg2SnCSn2CSnTe4Mg2SnCSn2CSnTe4Mg2SnCSn2CSnTe4Mg2SnCSn2CSnTe4Mg2SnCSn2CSnTe4Mg2SnCSn2CSnTe4Mg2SnCSn2CSnTe4Mg2SnCSn2CSnTe4Mg2SnCSn2CSnTe4Mg2SnCSn2CSnTe4Mg2SnCSn2CSnTe4Mg2SnCSn2CSnTe4Mg2SnCSn2CSnTe4Mg2SnCSn2CSnTe4Mg2SnCSn2CSnTe4Mg2SnCSn2CSnTe4Mg2SnCSn2CSnTe4Mg2SnCSn2CSnTe4Mg2SnCSn2CSnTe4Mg2SnCSn2CSnTe4Mg2SnCSn2CSnTe4Mg2SnCSn2CSnTe4Mg2SnCSn2CSnTe4Mg2SnCSn2CSnTe4Mg2SnCSn2CSnTe4Mg2SnCSn2CSnTe4Mg2SnCSn2CSnTe4Mg2SnCSn2CSnTe4Mg2SnCSn2CSnTe4Mg2SnCSn2CSnTe4Mg2SnCSn2CSnTe4Mg2SnCSn2CSnTe4Mg2SnCSn2CSnTe4Mg2
_chemical_formula_sum              "H72 C260 N32 O4 Sn272 Te272 Mg136"
_cell_length_a       49.4025
_cell_length_b       49.4984
_cell_length_c       9.13589
_cell_angle_alpha    98.1492
_cell_angle_beta     96.6137
_cell_angle_gamma    55.1116

_symmetry_space_group_name_H-M    'P1'
_space_group_IT_number       1

loop_
  _space_group_symop_operation_xyz
  'x, y, z'

loop_
  _atom_site_type_symbol
  _atom_site_label
  _atom_site_symmetry_multiplicity
  _atom_site_fract_x
  _atom_site_fract_y
  _atom_site_fract_z
  _atom_site_occupancy
  H   H1        1.0  0.90068  0.30824  0.24666  1.0000
  H   H2        1.0  0.09559  0.67466  0.30662  1.0000
  H   H3        1.0  0.82093  0.29702  0.26227  1.0000
  H   H4        1.0  0.17651  0.68403  0.29076  1.0000
  H   H5        1.0  0.80009  0.39198  0.20542  1.0000
  H   H6        1.0  0.19469  0.58769  0.26052  1.0000
  H   H7        1.0  0.87397  0.45961  0.07289  1.0000
  H   H8        1.0  0.11140  0.52154  0.14043  1.0000
  H   H9        1.0  0.96905  0.14899  0.39679  1.0000
  H   H10       1.0  0.03543  0.84093  0.39601  1.0000
  H   H11       1.0  0.65601  0.39692  0.17888  1.0000
  H   H12       1.0  0.33411  0.58844  0.14675  1.0000
  H   H13       1.0  0.32090  0.80990  0.20329  1.0000
  H   H14       1.0  0.69036  0.17911  0.15839  1.0000
  H   H15       1.0  0.31829  0.89696  0.16883  1.0000
  H   H16       1.0  0.69349  0.08948  0.11963  1.0000
  H   H17       1.0  0.40982  0.80066  0.12329  1.0000
  H   H18       1.0  0.60084  0.18321  0.07944  1.0000
  H   H19       1.0  0.45085  0.64659  0.03816  1.0000
  H   H20       1.0  0.54591  0.33618  0.01063  1.0000
  H   H21       1.0  0.17364  0.91910  0.40846  1.0000
  H   H22       1.0  0.84476  0.07776  0.28879  1.0000
  H   H23       1.0  0.42245  0.93613  0.09302  1.0000
  H   H24       1.0  0.57998  0.05568  0.05333  1.0000
  H   H25       1.0  0.81858  0.89019  0.18910  1.0000
  H   H26       1.0  0.20882  0.08613  0.20475  1.0000
  H   H27       1.0  0.91208  0.79719  0.24423  1.0000
  H   H28       1.0  0.11319  0.17702  0.27931  1.0000
  H   H29       1.0  0.82580  0.79913  0.08354  1.0000
  H   H30       1.0  0.19152  0.17890  0.13377  1.0000
  H   H31       1.0  0.66937  0.89968  0.93555  1.0000
  H   H32       1.0  0.34415  0.08325  0.95877  1.0000
  H   H33       1.0  0.90956  0.94083  0.50170  1.0000
  H   H34       1.0  0.12179  0.04219  0.49239  1.0000
  H   H35       1.0  0.95325  0.63823  0.14012  1.0000
  H   H36       1.0  0.04602  0.33631  0.20832  1.0000
  H   H37       1.0  0.90978  0.32669  0.80053  1.0000
  H   H38       1.0  0.10692  0.69345  0.76432  1.0000
  H   H39       1.0  0.82706  0.31886  0.77689  1.0000
  H   H40       1.0  0.18586  0.70411  0.70953  1.0000
  H   H41       1.0  0.81194  0.41011  0.69738  1.0000
  H   H42       1.0  0.20562  0.60756  0.70298  1.0000
  H   H43       1.0  0.90564  0.45776  0.55756  1.0000
  H   H44       1.0  0.11756  0.54589  0.60532  1.0000
  H   H45       1.0  0.96289  0.16952  0.95864  1.0000
  H   H46       1.0  0.03354  0.85770  0.84868  1.0000
  H   H47       1.0  0.66790  0.40996  0.62633  1.0000
  H   H48       1.0  0.34702  0.59811  0.57874  1.0000
  H   H49       1.0  0.30838  0.81958  0.70246  1.0000
  H   H50       1.0  0.67840  0.19646  0.70397  1.0000
  H   H51       1.0  0.30353  0.90890  0.68085  1.0000
  H   H52       1.0  0.68010  0.10847  0.69882  1.0000
  H   H53       1.0  0.39639  0.81479  0.65467  1.0000
  H   H54       1.0  0.58848  0.20120  0.61814  1.0000
  H   H55       1.0  0.45774  0.65920  0.55550  1.0000
  H   H56       1.0  0.54047  0.35240  0.51389  1.0000
  H   H57       1.0  0.15284  0.92323  0.75932  1.0000
  H   H58       1.0  0.83139  0.08900  0.91320  1.0000
  H   H59       1.0  0.40867  0.94045  0.51163  1.0000
  H   H60       1.0  0.57192  0.06922  0.58174  1.0000
  H   H61       1.0  0.78932  0.90064  0.68730  1.0000
  H   H62       1.0  0.18057  0.11065  0.64354  1.0000
  H   H63       1.0  0.88431  0.80799  0.69959  1.0000
  H   H64       1.0  0.08594  0.20178  0.73137  1.0000
  H   H65       1.0  0.79791  0.80929  0.55224  1.0000
  H   H66       1.0  0.16571  0.20404  0.60933  1.0000
  H   H67       1.0  0.64210  0.90135  0.47312  1.0000
  H   H68       1.0  0.31801  0.11842  0.47625  1.0000
  H   H69       1.0  0.89331  0.93621  0.04800  1.0000
  H   H70       1.0  0.10183  0.06585  0.97913  1.0000
  H   H71       1.0  0.94516  0.65076  0.62850  1.0000
  H   H72       1.0  0.04793  0.36332  0.69699  1.0000
  C   C1        1.0  0.88109  0.44844  0.17849  1.0000
  C   C2        1.0  0.10510  0.53752  0.24516  1.0000
  C   C3        1.0  0.94977  0.15735  0.30733  1.0000
  C   C4        1.0  0.05262  0.82648  0.30588  1.0000
  C   C5        1.0  0.85156  0.35276  0.22446  1.0000
  C   C6        1.0  0.14389  0.62860  0.28632  1.0000
  C   C7        1.0  0.87431  0.31904  0.24484  1.0000
  C   C8        1.0  0.12197  0.66331  0.30155  1.0000
  C   C9        1.0  0.86347  0.29851  0.25346  1.0000
  C   C10       1.0  0.13342  0.68357  0.29973  1.0000
  C   C11       1.0  0.82928  0.31266  0.24972  1.0000
  C   C12       1.0  0.16745  0.66843  0.28695  1.0000
  C   C13       1.0  0.80606  0.34659  0.23610  1.0000
  C   C14       1.0  0.18992  0.63392  0.27223  1.0000
  C   C15       1.0  0.81777  0.36593  0.22085  1.0000
  C   C16       1.0  0.17766  0.61447  0.27315  1.0000
  C   C17       1.0  0.66465  0.41331  0.20317  1.0000
  C   C18       1.0  0.32765  0.57148  0.16820  1.0000
  C   C19       1.0  0.48136  0.50898  0.18894  1.0000
  C   C20       1.0  0.51156  0.47927  0.19378  1.0000
  C   C21       1.0  0.44121  0.65876  0.14787  1.0000
  C   C22       1.0  0.55581  0.32731  0.12089  1.0000
  C   C23       1.0  0.17699  0.92654  0.30767  1.0000
  C   C24       1.0  0.83824  0.06151  0.22495  1.0000
  C   C25       1.0  0.36784  0.80099  0.16574  1.0000
  C   C26       1.0  0.64330  0.18542  0.11798  1.0000
  C   C27       1.0  0.33379  0.82118  0.18868  1.0000
  C   C28       1.0  0.67775  0.16664  0.14158  1.0000
  C   C29       1.0  0.31556  0.85578  0.18800  1.0000
  C   C30       1.0  0.69639  0.13185  0.13847  1.0000
  C   C31       1.0  0.33213  0.87015  0.16396  1.0000
  C   C32       1.0  0.67967  0.11610  0.11482  1.0000
  C   C33       1.0  0.36637  0.85065  0.14209  1.0000
  C   C34       1.0  0.64513  0.13460  0.09664  1.0000
  C   C35       1.0  0.38350  0.81620  0.14166  1.0000
  C   C36       1.0  0.62757  0.16891  0.09512  1.0000
  C   C37       1.0  0.43820  0.90899  0.09192  1.0000
  C   C38       1.0  0.56637  0.08255  0.08390  1.0000
  C   C39       1.0  0.52361  0.99427  0.15903  1.0000
  C   C40       1.0  0.49848  0.98989  0.14941  1.0000
  C   C41       1.0  0.68083  0.89547  0.04822  1.0000
  C   C42       1.0  0.33794  0.08536  0.07351  1.0000
  C   C43       1.0  0.92615  0.91709  0.43490  1.0000
  C   C44       1.0  0.10407  0.06386  0.42919  1.0000
  C   C45       1.0  0.81799  0.84670  0.13291  1.0000
  C   C46       1.0  0.20416  0.13059  0.16456  1.0000
  C   C47       1.0  0.83312  0.86332  0.18197  1.0000
  C   C48       1.0  0.19225  0.11289  0.20451  1.0000
  C   C49       1.0  0.86728  0.84563  0.21711  1.0000
  C   C50       1.0  0.15899  0.12924  0.24025  1.0000
  C   C51       1.0  0.88611  0.81081  0.20819  1.0000
  C   C52       1.0  0.13813  0.16389  0.24096  1.0000
  C   C53       1.0  0.87108  0.79382  0.16352  1.0000
  C   C54       1.0  0.14966  0.18210  0.20445  1.0000
  C   C55       1.0  0.83746  0.81215  0.12111  1.0000
  C   C56       1.0  0.18235  0.16500  0.16271  1.0000
  C   C57       1.0  0.92676  0.65518  0.16149  1.0000
  C   C58       1.0  0.07205  0.32435  0.24693  1.0000
  C   C59       1.0  0.99113  0.48126  0.26495  1.0000
  C   C60       1.0  0.99612  0.50554  0.25773  1.0000
  C   C61       1.0  0.02282  0.97235  0.23505  1.0000
  C   C62       1.0  0.99175  0.00157  0.23292  1.0000
  C   C63       1.0  0.90644  0.45335  0.67307  1.0000
  C   C64       1.0  0.12022  0.55462  0.72040  1.0000
  C   C65       1.0  0.94909  0.17848  0.85336  1.0000
  C   C66       1.0  0.05383  0.84634  0.77242  1.0000
  C   C67       1.0  0.86217  0.37097  0.74917  1.0000
  C   C68       1.0  0.15526  0.64792  0.73799  1.0000
  C   C69       1.0  0.88332  0.33804  0.78485  1.0000
  C   C70       1.0  0.13294  0.68252  0.75045  1.0000
  C   C71       1.0  0.87091  0.31877  0.79008  1.0000
  C   C72       1.0  0.14343  0.70322  0.73659  1.0000
  C   C73       1.0  0.83680  0.33338  0.76647  1.0000
  C   C74       1.0  0.17711  0.68847  0.71383  1.0000
  C   C75       1.0  0.81514  0.36641  0.73475  1.0000
  C   C76       1.0  0.19984  0.65398  0.70290  1.0000
  C   C77       1.0  0.82834  0.38465  0.72469  1.0000
  C   C78       1.0  0.18835  0.63430  0.71402  1.0000
  C   C79       1.0  0.67508  0.42749  0.65427  1.0000
  C   C80       1.0  0.33911  0.58386  0.61964  1.0000
  C   C81       1.0  0.49300  0.52062  0.70625  1.0000
  C   C82       1.0  0.52280  0.49040  0.70894  1.0000
  C   C83       1.0  0.44559  0.67119  0.66127  1.0000
  C   C84       1.0  0.55002  0.34414  0.62515  1.0000
  C   C85       1.0  0.15966  0.93966  0.73446  1.0000
  C   C86       1.0  0.82447  0.07939  0.81022  1.0000
  C   C87       1.0  0.35474  0.81293  0.67994  1.0000
  C   C88       1.0  0.63110  0.20307  0.65963  1.0000
  C   C89       1.0  0.32046  0.83210  0.69636  1.0000
  C   C90       1.0  0.66530  0.18450  0.69208  1.0000
  C   C91       1.0  0.30136  0.86692  0.69822  1.0000
  C   C92       1.0  0.68326  0.15021  0.70207  1.0000
  C   C93       1.0  0.31746  0.88214  0.67944  1.0000
  C   C94       1.0  0.66638  0.13470  0.68422  1.0000
  C   C95       1.0  0.35165  0.86341  0.66298  1.0000
  C   C96       1.0  0.63196  0.15299  0.65688  1.0000
  C   C97       1.0  0.36986  0.82917  0.66627  1.0000
  C   C98       1.0  0.61500  0.18689  0.64216  1.0000
  C   C99       1.0  0.42320  0.91810  0.57159  1.0000
  C   C100      1.0  0.55656  0.09606  0.61364  1.0000
  C   C101      1.0  0.49678  0.01451  0.66627  1.0000
  C   C102      1.0  0.46870  0.01529  0.66657  1.0000
  C   C103      1.0  0.65192  0.90646  0.57970  1.0000
  C   C104      1.0  0.31103  0.11393  0.57567  1.0000
  C   C105      1.0  0.90454  0.91897  0.94734  1.0000
  C   C106      1.0  0.08292  0.08744  0.91777  1.0000
  C   C107      1.0  0.78930  0.85706  0.61465  1.0000
  C   C108      1.0  0.17739  0.15515  0.61691  1.0000
  C   C109      1.0  0.80426  0.87378  0.66839  1.0000
  C   C110      1.0  0.16487  0.13752  0.64978  1.0000
  C   C111      1.0  0.83865  0.85617  0.69532  1.0000
  C   C112      1.0  0.13184  0.15405  0.68855  1.0000
  C   C113      1.0  0.85802  0.82151  0.67033  1.0000
  C   C114      1.0  0.11101  0.18888  0.69476  1.0000
  C   C115      1.0  0.84351  0.80422  0.62070  1.0000
  C   C116      1.0  0.12352  0.20693  0.66854  1.0000
  C   C117      1.0  0.80938  0.82247  0.59027  1.0000
  C   C118      1.0  0.15625  0.18969  0.62731  1.0000
  C   C119      1.0  0.91822  0.66313  0.62639  1.0000
  C   C120      1.0  0.07427  0.34437  0.71918  1.0000
  C   C121      1.0  0.01566  0.48992  0.76238  1.0000
  C   C122      1.0  0.01416  0.51822  0.75788  1.0000
  C   C123      1.0  0.00721  0.00064  0.73612  1.0000
  C   C124      1.0  0.97656  0.03014  0.74201  1.0000
  N   N1        1.0  0.94341  0.13811  0.22312  1.0000
  N   N2        1.0  0.05839  0.83950  0.21071  1.0000
  N   N3        1.0  0.35015  0.54022  0.17269  1.0000
  N   N4        1.0  0.64370  0.44512  0.21735  1.0000
  N   N5        1.0  0.44508  0.64211  0.25421  1.0000
  N   N6        1.0  0.54948  0.34787  0.23756  1.0000
  N   N7        1.0  0.15205  0.94621  0.22352  1.0000
  N   N8        1.0  0.86082  0.03183  0.17262  1.0000
  N   N9        1.0  0.53643  0.09906  0.12652  1.0000
  N   N10       1.0  0.46996  0.89302  0.08797  1.0000
  N   N11       1.0  0.66396  0.90197  0.16170  1.0000
  N   N12       1.0  0.35913  0.07873  0.18342  1.0000
  N   N13       1.0  0.08421  0.34151  0.29123  1.0000
  N   N14       1.0  0.90996  0.64386  0.18850  1.0000
  N   N15       1.0  0.89580  0.45595  0.28622  1.0000
  N   N16       1.0  0.08948  0.53606  0.34470  1.0000
  N   N17       1.0  0.94661  0.15999  0.74529  1.0000
  N   N18       1.0  0.05937  0.86302  0.69817  1.0000
  N   N19       1.0  0.36067  0.55430  0.65826  1.0000
  N   N20       1.0  0.65293  0.45894  0.67656  1.0000
  N   N21       1.0  0.45140  0.65423  0.77025  1.0000
  N   N22       1.0  0.54597  0.36446  0.74002  1.0000
  N   N23       1.0  0.13708  0.97013  0.70974  1.0000
  N   N24       1.0  0.84633  0.05743  0.71715  1.0000
  N   N25       1.0  0.52584  0.11057  0.64257  1.0000
  N   N26       1.0  0.45156  0.90947  0.63481  1.0000
  N   N27       1.0  0.63380  0.92139  0.69382  1.0000
  N   N28       1.0  0.33137  0.10196  0.68844  1.0000
  N   N29       1.0  0.09542  0.35207  0.74578  1.0000
  N   N30       1.0  0.90568  0.64698  0.64291  1.0000
  N   N31       1.0  0.91829  0.46388  0.78152  1.0000
  N   N32       1.0  0.11137  0.54750  0.82874  1.0000
  O   O1        1.0  0.95480  0.90706  0.41621  1.0000
  O   O2        1.0  0.07510  0.07310  0.40764  1.0000
  O   O3        1.0  0.92895  0.91443  0.89661  1.0000
  O   O4        1.0  0.05362  0.09768  0.91449  1.0000
  C  Sn1       1.0  0.88485  0.38358  0.32562  1.0000
  C   C125      1.0  0.86086  0.38025  0.24585  1.0000
  C  Sn2       1.0  0.84487  0.39700  0.11971  1.0000
  C  Sn3       1.0  0.85303  0.41748  0.07225  1.0000
  C   C126      1.0  0.87701  0.42080  0.15198  1.0000
  C  Sn4       1.0  0.89302  0.40406  0.27815  1.0000
  O  Te1       1.0  0.90053  0.36660  0.45138  1.0000
  O  Te2       1.0  0.82096  0.39330  0.04181  1.0000
  O  Te3       1.0  0.84670  0.45528  0.94637  1.0000
  O  Te4       1.0  0.91692  0.40775  0.35601  1.0000
  Mg  Mg1       1.0  0.81585  0.44229  0.87736  1.0000
  Mg  Mg2       1.0  0.93142  0.37957  0.52042  1.0000
  C  Sn5       1.0  0.15004  0.55292  0.20209  1.0000
  C   C127      1.0  0.12485  0.55606  0.27479  1.0000
  C  Sn6       1.0  0.10055  0.58664  0.34345  1.0000
  C  Sn7       1.0  0.10142  0.61467  0.33929  1.0000
  C   C128      1.0  0.12659  0.61152  0.26660  1.0000
  C  Sn8       1.0  0.15091  0.58095  0.19793  1.0000
  O  Te5       1.0  0.17408  0.52211  0.13420  1.0000
  O  Te6       1.0  0.07562  0.58917  0.41549  1.0000
  O  Te7       1.0  0.07735  0.64549  0.40726  1.0000
  O  Te8       1.0  0.17582  0.57841  0.12590  1.0000
  Mg  Mg3       1.0  0.04843  0.63644  0.49148  1.0000
  Mg  Mg4       1.0  0.20302  0.53116  0.04981  1.0000
  C  Sn9       1.0  0.90202  0.21210  0.14506  1.0000
  C   C129      1.0  0.92942  0.19533  0.24202  1.0000
  C  Sn10      1.0  0.93469  0.21263  0.36348  1.0000
  C  Sn11      1.0  0.91209  0.24741  0.38860  1.0000
  C   C130      1.0  0.88470  0.26416  0.29169  1.0000
  C  Sn12      1.0  0.87942  0.24688  0.17019  1.0000
  O  Te9       1.0  0.89724  0.19430  0.02436  1.0000
  O  Te10      1.0  0.96227  0.19532  0.45885  1.0000
  O  Te11      1.0  0.91689  0.26520  0.50942  1.0000
  O  Te12      1.0  0.85186  0.26416  0.07487  1.0000
  Mg  Mg5       1.0  0.95810  0.23055  0.60796  1.0000
  Mg  Mg6       1.0  0.86536  0.24977  0.92577  1.0000
  C  Sn13      1.0  0.12107  0.74380  0.23666  1.0000
  C   C131      1.0  0.11686  0.72425  0.31501  1.0000
  C  Sn14      1.0  0.08708  0.73766  0.38167  1.0000
  C  Sn15      1.0  0.06094  0.77130  0.36970  1.0000
  C   C132      1.0  0.06516  0.79083  0.29136  1.0000
  C  Sn16      1.0  0.09494  0.77745  0.22468  1.0000
  O  Te13      1.0  0.15106  0.72988  0.17089  1.0000
  O  Te14      1.0  0.08345  0.71763  0.45947  1.0000
  O  Te15      1.0  0.03094  0.78521  0.43555  1.0000
  O  Te16      1.0  0.09856  0.79746  0.14690  1.0000
  Mg  Mg7       1.0  0.03793  0.74793  0.52969  1.0000
  Mg  Mg8       1.0  0.14407  0.76718  0.07658  1.0000
  C  Sn17      1.0  0.72206  0.41430  0.24751  1.0000
  C   C133      1.0  0.70346  0.40186  0.18853  1.0000
  C  Sn18      1.0  0.71830  0.36776  0.16440  1.0000
  C  Sn19      1.0  0.75244  0.34562  0.20004  1.0000
  C   C134      1.0  0.77102  0.35807  0.25900  1.0000
  C  Sn20      1.0  0.75620  0.39217  0.28315  1.0000
  O  Te17      1.0  0.70671  0.44848  0.27072  1.0000
  O  Te18      1.0  0.69920  0.35591  0.10528  1.0000
  O  Te19      1.0  0.76778  0.31142  0.17677  1.0000
  O  Te20      1.0  0.77528  0.40402  0.34225  1.0000
  Mg  Mg9       1.0  0.73135  0.30728  0.09393  1.0000
  Mg  Mg10      1.0  0.74315  0.45263  0.35371  1.0000
  C  Sn21      1.0  0.27528  0.56821  0.24410  1.0000
  C   C135      1.0  0.28927  0.57988  0.16951  1.0000
  C  Sn22      1.0  0.27132  0.61320  0.14360  1.0000
  C  Sn23      1.0  0.23870  0.63532  0.19337  1.0000
  C   C136      1.0  0.22472  0.62365  0.26793  1.0000
  C  Sn24      1.0  0.24266  0.59033  0.29386  1.0000
  O  Te21      1.0  0.29368  0.53481  0.26878  1.0000
  O  Te22      1.0  0.28583  0.62428  0.06875  1.0000
  O  Te23      1.0  0.22029  0.66875  0.16861  1.0000
  O  Te24      1.0  0.22816  0.57925  0.36869  1.0000
  Mg  Mg11      1.0  0.25083  0.67201  0.06173  1.0000
  Mg  Mg12      1.0  0.26315  0.53153  0.37583  1.0000
  C  Sn25      1.0  0.42943  0.50303  0.04524  1.0000
  C   C137      1.0  0.44405  0.51595  0.14359  1.0000
  C  Sn26      1.0  0.42897  0.53452  0.27502  1.0000
  C  Sn27      1.0  0.39867  0.54028  0.30892  1.0000
  C   C138      1.0  0.38408  0.52736  0.21063  1.0000
  C  Sn28      1.0  0.39913  0.50879  0.07915  1.0000
  O  Te25      1.0  0.45431  0.50534  0.91450  1.0000
  O  Te26      1.0  0.44404  0.54719  0.37158  1.0000
  O  Te27      1.0  0.38317  0.55879  0.43979  1.0000
  O  Te28      1.0  0.39345  0.51693  0.98264  1.0000
  Mg  Mg13      1.0  0.41335  0.57083  0.53594  1.0000
  Mg  Mg14      1.0  0.42413  0.49327  0.81829  1.0000
  C  Sn29      1.0  0.59680  0.43585  0.28142  1.0000
  C   C139      1.0  0.61018  0.44821  0.20726  1.0000
  C  Sn30      1.0  0.58951  0.47724  0.13704  1.0000
  C  Sn31      1.0  0.55474  0.49430  0.14110  1.0000
  C   C140      1.0  0.54138  0.48195  0.21525  1.0000
  C  Sn32      1.0  0.56203  0.45291  0.28548  1.0000
  O  Te29      1.0  0.61793  0.40679  0.35085  1.0000
  O  Te30      1.0  0.60346  0.48911  0.06356  1.0000
  O  Te31      1.0  0.53361  0.52339  0.07158  1.0000
  O  Te32      1.0  0.54809  0.44105  0.35895  1.0000
  Mg  Mg15      1.0  0.57378  0.55052  0.98576  1.0000
  Mg  Mg16      1.0  0.58712  0.40046  0.43685  1.0000
  C  Sn33      1.0  0.49565  0.57437  0.26425  1.0000
  C   C141      1.0  0.46782  0.60165  0.20178  1.0000
  C  Sn34      1.0  0.44152  0.60003  0.13985  1.0000
  C  Sn35      1.0  0.44305  0.57055  0.14045  1.0000
  C   C142      1.0  0.47087  0.54329  0.20291  1.0000
  C  Sn36      1.0  0.49718  0.54488  0.26485  1.0000
  O  Te33      1.0  0.52165  0.57654  0.32554  1.0000
  O  Te34      1.0  0.41397  0.62762  0.07800  1.0000
  O  Te35      1.0  0.41702  0.56840  0.07908  1.0000
  O  Te36      1.0  0.52472  0.51732  0.32670  1.0000
  Mg  Mg17      1.0  0.38481  0.61257  0.00805  1.0000
  Mg  Mg18      1.0  0.55389  0.53235  0.39674  1.0000
  C  Sn37      1.0  0.50639  0.43352  0.32698  1.0000
  C   C143      1.0  0.51875  0.44421  0.23615  1.0000
  C  Sn38      1.0  0.53882  0.42294  0.11987  1.0000
  C  Sn39      1.0  0.54667  0.39031  0.09376  1.0000
  C   C144      1.0  0.53431  0.37963  0.18453  1.0000
  C  Sn40      1.0  0.51424  0.40088  0.30086  1.0000
  O  Te37      1.0  0.48637  0.45520  0.44258  1.0000
  O  Te38      1.0  0.55090  0.43419  0.03059  1.0000
  O  Te39      1.0  0.57608  0.38944  0.97804  1.0000
  O  Te40      1.0  0.50216  0.38965  0.39009  1.0000
  Mg  Mg19      1.0  0.58655  0.41624  0.88690  1.0000
  Mg  Mg20      1.0  0.47587  0.42840  0.53375  1.0000
  C  Sn41      1.0  0.95647  0.06256  0.10490  1.0000
  C   C145      1.0  0.98348  0.03823  0.18497  1.0000
  C  Sn42      1.0  0.99833  0.04699  0.30375  1.0000
  C  Sn43      1.0  0.98591  0.08079  0.34341  1.0000
  C   C146      1.0  0.95891  0.10511  0.26339  1.0000
  C  Sn44      1.0  0.94405  0.09636  0.14456  1.0000
  O  Te41      1.0  0.95138  0.07405  0.98656  1.0000
  O  Te42      1.0  0.02532  0.02222  0.38210  1.0000
  O  Te43      1.0  0.00040  0.09010  0.46186  1.0000
  O  Te44      1.0  0.91708  0.12111  0.06625  1.0000
  Mg  Mg21      1.0  0.03658  0.04733  0.53471  1.0000
  Mg  Mg22      1.0  0.91515  0.11685  0.91368  1.0000
  C  Sn45      1.0  0.06691  0.88562  0.15122  1.0000
  C   C147      1.0  0.05306  0.87405  0.22751  1.0000
  C  Sn46      1.0  0.02285  0.89622  0.29439  1.0000
  C  Sn47      1.0  0.00612  0.93066  0.28474  1.0000
  C   C148      1.0  0.01997  0.94221  0.20846  1.0000
  C  Sn48      1.0  0.05018  0.92006  0.14156  1.0000
  O  Te45      1.0  0.09714  0.86301  0.08519  1.0000
  O  Te46      1.0  0.00950  0.88406  0.37010  1.0000
  O  Te47      1.0  0.97587  0.95327  0.35085  1.0000
  O  Te48      1.0  0.06353  0.93220  0.06587  1.0000
  Mg  Mg23      1.0  0.96771  0.92466  0.44161  1.0000
  Mg  Mg24      1.0  0.11468  0.91244  0.99426  1.0000
  C  Sn49      1.0  0.38587  0.74281  0.29070  1.0000
  C   C149      1.0  0.39097  0.76141  0.21014  1.0000
  C  Sn50      1.0  0.41126  0.74640  0.08905  1.0000
  C  Sn51      1.0  0.42676  0.71209  0.04753  1.0000
  C   C150      1.0  0.42166  0.69351  0.12805  1.0000
  C  Sn52      1.0  0.40137  0.70849  0.24919  1.0000
  O  Te49      1.0  0.36548  0.75833  0.41137  1.0000
  O  Te50      1.0  0.41599  0.76551  0.01024  1.0000
  O  Te51      1.0  0.45653  0.71739  0.92676  1.0000
  O  Te52      1.0  0.39664  0.68941  0.32795  1.0000
  Mg  Mg25      1.0  0.45533  0.75390  0.85418  1.0000
  Mg  Mg26      1.0  0.36666  0.72180  0.48397  1.0000
  C  Sn53      1.0  0.61723  0.24992  0.26122  1.0000
  C   C151      1.0  0.61771  0.22578  0.15923  1.0000
  C  Sn54      1.0  0.59949  0.23441  0.02499  1.0000
  C  Sn55      1.0  0.58977  0.28867  0.99195  1.0000
  C   C152      1.0  0.57992  0.29197  0.09389  1.0000
  C  Sn56      1.0  0.59813  0.28337  0.22818  1.0000
  O  Te53      1.0  0.63564  0.24074  0.39473  1.0000
  O  Te54      1.0  0.60973  0.23065  0.92481  1.0000
  O  Te55      1.0  0.57135  0.29784  0.85831  1.0000
  O  Te56      1.0  0.59727  0.30792  0.32831  1.0000
  Mg  Mg27      1.0  0.58049  0.25544  0.75764  1.0000
  Mg  Mg28      1.0  0.62651  0.28315  0.49547  1.0000
  C  Sn57      1.0  0.24436  0.88544  0.38810  1.0000
  C   C153      1.0  0.21738  0.91187  0.31731  1.0000
  C  Sn58      1.0  0.22087  0.91933  0.18179  1.0000
  C  Sn59      1.0  0.25199  0.89997  0.11558  1.0000
  C   C154      1.0  0.27895  0.87355  0.18635  1.0000
  C  Sn60      1.0  0.27547  0.86607  0.32189  1.0000
  O  Te57      1.0  0.24029  0.87843  0.52352  1.0000
  O  Te58      1.0  0.19354  0.94589  0.11315  1.0000
  O  Te59      1.0  0.26541  0.92782  0.98006  1.0000
  O  Te60      1.0  0.30278  0.83954  0.39050  1.0000
  Mg  Mg29      1.0  0.22084  0.96647  0.92965  1.0000
  Mg  Mg30      1.0  0.28488  0.83973  0.57395  1.0000
  C  Sn61      1.0  0.76096  0.07093  0.12341  1.0000
  C   C155      1.0  0.73695  0.10266  0.18386  1.0000
  C  Sn62      1.0  0.74576  0.12398  0.24980  1.0000
  C  Sn63      1.0  0.77927  0.11337  0.25536  1.0000
  C   C156      1.0  0.80325  0.08165  0.19491  1.0000
  C  Sn64      1.0  0.79446  0.06031  0.12897  1.0000
  O  Te61      1.0  0.75158  0.05003  0.05803  1.0000
  O  Te62      1.0  0.72133  0.15560  0.30953  1.0000
  O  Te63      1.0  0.78862  0.13430  0.32082  1.0000
  O  Te64      1.0  0.81887  0.02872  0.06925  1.0000
  Mg  Mg31      1.0  0.74636  0.17503  0.38679  1.0000
  Mg  Mg32      1.0  0.80324  0.03009  0.99190  1.0000
  C  Sn65      1.0  0.43692  0.85232  0.10893  1.0000
  C   C157      1.0  0.42498  0.88317  0.06274  1.0000
  C  Sn66      1.0  0.39113  0.90782  0.05927  1.0000
  C  Sn67      1.0  0.36874  0.90152  0.10296  1.0000
  C   C158      1.0  0.38068  0.87068  0.14915  1.0000
  C  Sn68      1.0  0.41454  0.84601  0.15263  1.0000
  O  Te65      1.0  0.47086  0.82803  0.11153  1.0000
  O  Te66      1.0  0.37977  0.93847  0.01263  1.0000
  O  Te67      1.0  0.33477  0.92583  0.10032  1.0000
  O  Te68      1.0  0.42589  0.81538  0.19926  1.0000
  Mg  Mg33      1.0  0.33132  0.96362  0.02834  1.0000
  Mg  Mg34      1.0  0.47434  0.79022  0.18366  1.0000
  C  Sn69      1.0  0.59631  0.13164  0.21167  1.0000
  C   C159      1.0  0.62518  0.11801  0.13662  1.0000
  C  Sn70      1.0  0.63311  0.09426  0.01622  1.0000
  C  Sn71      1.0  0.62109  0.10474  0.96981  1.0000
  C   C160      1.0  0.58287  0.09755  0.04483  1.0000
  C  Sn72      1.0  0.57492  0.12130  0.16526  1.0000
  O  Te69      1.0  0.58888  0.15535  0.33173  1.0000
  O  Te70      1.0  0.67148  0.10180  0.94296  1.0000
  O  Te71      1.0  0.62855  0.08100  0.84965  1.0000
  O  Te72      1.0  0.54594  0.13457  0.23848  1.0000
  Mg  Mg35      1.0  0.67087  0.07022  0.78550  1.0000
  Mg  Mg36      1.0  0.54651  0.16616  0.39590  1.0000
  C  Sn73      1.0  0.54916  0.04690  0.25471  1.0000
  C   C161      1.0  0.53465  0.07003  0.15003  1.0000
  C  Sn74      1.0  0.50765  0.07474  0.06036  1.0000
  C  Sn75      1.0  0.49487  0.05596  0.07569  1.0000
  C   C162      1.0  0.50938  0.03285  0.18033  1.0000
  C  Sn76      1.0  0.53639  0.02811  0.27004  1.0000
  O  Te73      1.0  0.57614  0.04260  0.34318  1.0000
  O  Te74      1.0  0.50294  0.11882  0.95646  1.0000
  O  Te75      1.0  0.47725  0.08109  0.98711  1.0000
  O  Te76      1.0  0.97737  0.00487  0.37390  1.0000
  Mg  Mg37      1.0  0.46656  0.11575  0.86164  1.0000
  Mg  Mg38      1.0  0.01374  0.00794  0.46883  1.0000
  C  Sn77      1.0  0.51482  0.90791  0.02454  1.0000
  C   C163      1.0  0.49598  0.90531  0.11746  1.0000
  C  Sn78      1.0  0.47691  0.93115  0.22400  1.0000
  C  Sn79      1.0  0.47663  0.96021  0.23791  1.0000
  C   C164      1.0  0.49546  0.96280  0.14502  1.0000
  C  Sn80      1.0  0.51455  0.93697  0.03845  1.0000
  O  Te77      1.0  0.54308  0.90258  0.91880  1.0000
  O  Te78      1.0  0.45829  0.92798  0.31567  1.0000
  O  Te79      1.0  0.45772  0.98637  0.34377  1.0000
  O  Te80      1.0  0.54253  0.96095  0.94681  1.0000
  Mg  Mg39      1.0  0.43651  0.97035  0.44276  1.0000
  Mg  Mg40      1.0  0.56430  0.91861  0.81964  1.0000
  C  Sn81      1.0  0.60110  0.91270  0.16115  1.0000
  C   C165      1.0  0.62444  0.91672  0.11433  1.0000
  C  Sn82      1.0  0.61600  0.94821  0.09500  1.0000
  C  Sn83      1.0  0.58355  0.97626  0.12315  1.0000
  C   C166      1.0  0.56022  0.97224  0.16996  1.0000
  C  Sn84      1.0  0.56865  0.94076  0.18930  1.0000
  O  Te81      1.0  0.61008  0.88100  0.17975  1.0000
  O  Te82      1.0  0.63976  0.95160  0.04806  1.0000
  O  Te83      1.0  0.14766  0.00799  0.10450  1.0000
  O  Te84      1.0  0.54491  0.93736  0.23623  1.0000
  Mg  Mg41      1.0  0.61562  0.99992  0.03881  1.0000
  Mg  Mg42      1.0  0.56902  0.88906  0.24560  1.0000
  C  Sn85      1.0  0.41462  0.02150  0.08610  1.0000
  C   C167      1.0  0.39606  0.05246  0.16619  1.0000
  C  Sn86      1.0  0.41082  0.06878  0.22766  1.0000
  C  Sn87      1.0  0.44484  0.05387  0.20861  1.0000
  C   C168      1.0  0.46338  0.02294  0.12855  1.0000
  C  Sn88      1.0  0.44864  0.00659  0.06705  1.0000
  O  Te85      1.0  0.39935  0.00564  0.02561  1.0000
  O  Te86      1.0  0.39176  0.09970  0.30732  1.0000
  O  Te87      1.0  0.46011  0.06977  0.26919  1.0000
  O  Te88      1.0  0.90396  0.99651  0.98742  1.0000
  Mg  Mg43      1.0  0.42377  0.11154  0.36848  1.0000
  Mg  Mg44      1.0  0.87198  0.98465  0.92615  1.0000
  C  Sn89      1.0  0.10980  0.92947  0.28801  1.0000
  C   C169      1.0  0.11998  0.94650  0.22731  1.0000
  C  Sn90      1.0  0.09682  0.97843  0.18596  1.0000
  C  Sn91      1.0  0.06276  0.99368  0.20578  1.0000
  C   C170      1.0  0.05260  0.97665  0.26646  1.0000
  C  Sn92      1.0  0.07574  0.94471  0.30782  1.0000
  O  Te89      1.0  0.13338  0.89756  0.32856  1.0000
  O  Te90      1.0  0.10760  0.99496  0.12546  1.0000
  O  Te91      1.0  0.61227  0.02561  0.16516  1.0000
  O  Te92      1.0  0.06498  0.92819  0.36831  1.0000
  Mg  Mg45      1.0  0.63913  0.03804  0.08749  1.0000
  Mg  Mg46      1.0  0.10652  0.88512  0.40639  1.0000
  C  Sn93      1.0  0.93255  0.02177  0.36511  1.0000
  C   C171      1.0  0.38501  0.00025  0.26889  1.0000
  C  Sn94      1.0  0.37833  0.98930  0.12880  1.0000
  C  Sn95      1.0  0.34542  0.00010  0.08390  1.0000
  C   C172      1.0  0.89298  0.02162  0.18008  1.0000
  C  Sn96      1.0  0.89964  0.03258  0.32021  1.0000
  O  Te93      1.0  0.93980  0.03240  0.50464  1.0000
  O  Te94      1.0  0.40429  0.96777  0.03456  1.0000
  O  Te95      1.0  0.34756  0.01026  0.94425  1.0000
  O  Te96      1.0  0.87370  0.05409  0.41441  1.0000
  Mg  Mg47      1.0  0.39131  0.98102  0.85545  1.0000
  Mg  Mg48      1.0  0.89601  0.06169  0.59351  1.0000
  C  Sn97      1.0  0.74769  0.85035  0.97544  1.0000
  C   C173      1.0  0.71213  0.85305  0.06529  1.0000
  C  Sn98      1.0  0.71553  0.87420  0.17221  1.0000
  C  Sn99      1.0  0.74571  0.87181  0.18964  1.0000
  C   C174      1.0  0.77187  0.84831  0.09981  1.0000
  C  Sn100     1.0  0.77787  0.84796  0.99287  1.0000
  O  Te97      1.0  0.74374  0.82946  0.86926  1.0000
  O  Te98      1.0  0.68901  0.89751  0.26076  1.0000
  O  Te99      1.0  0.74964  0.89272  0.29593  1.0000
  O  Te100     1.0  0.80436  0.82466  0.90434  1.0000
  Mg  Mg49      1.0  0.70640  0.92044  0.38986  1.0000
  Mg  Mg50      1.0  0.78700  0.80173  0.77516  1.0000
  C  Sn101     1.0  0.26921  0.12888  0.02766  1.0000
  C   C175      1.0  0.29815  0.10603  0.10396  1.0000
  C  Sn102     1.0  0.29837  0.08475  0.19022  1.0000
  C  Sn103     1.0  0.26906  0.08631  0.20037  1.0000
  C   C176      1.0  0.24015  0.10914  0.12409  1.0000
  C  Sn104     1.0  0.23990  0.13044  0.03781  1.0000
  O  Te101     1.0  0.27893  0.17073  0.94207  1.0000
  O  Te102     1.0  0.32760  0.06213  0.26552  1.0000
  O  Te103     1.0  0.26874  0.06525  0.28605  1.0000
  O  Te104     1.0  0.22007  0.17386  0.96252  1.0000
  Mg  Mg51      1.0  0.31471  0.03867  0.36791  1.0000
  Mg  Mg52      1.0  0.23293  0.19732  0.86005  1.0000
  C  Sn105     1.0  0.87754  0.90461  0.43981  1.0000
  C   C177      1.0  0.90838  0.89700  0.40915  1.0000
  C  Sn106     1.0  0.92628  0.87342  0.29318  1.0000
  C  Sn107     1.0  0.91307  0.85712  0.20597  1.0000
  C   C178      1.0  0.88225  0.86474  0.23664  1.0000
  C  Sn108     1.0  0.86434  0.88831  0.35261  1.0000
  O  Te105     1.0  0.86008  0.92827  0.55628  1.0000
  O  Te106     1.0  0.95706  0.86621  0.26467  1.0000
  O  Te107     1.0  0.93056  0.83344  0.08943  1.0000
  O  Te108     1.0  0.83357  0.89552  0.38111  1.0000
  Mg  Mg53      1.0  0.97144  0.83215  0.09393  1.0000
  Mg  Mg54      1.0  0.81916  0.92959  0.55177  1.0000
  C  Sn109     1.0  0.10222  0.10605  0.24062  1.0000
  C   C179      1.0  0.11752  0.07948  0.32757  1.0000
  C  Sn110     1.0  0.14726  0.06980  0.40596  1.0000
  C  Sn111     1.0  0.16202  0.08705  0.39733  1.0000
  C   C180      1.0  0.14673  0.11361  0.31044  1.0000
  C  Sn112     1.0  0.11698  0.12330  0.23199  1.0000
  O  Te109     1.0  0.07249  0.11530  0.16320  1.0000
  O  Te110     1.0  0.16209  0.04315  0.49212  1.0000
  O  Te111     1.0  0.19178  0.07778  0.47484  1.0000
  O  Te112     1.0  0.10215  0.14994  0.14590  1.0000
  Mg  Mg55      1.0  0.20246  0.03992  0.57723  1.0000
  Mg  Mg56      1.0  0.06178  0.15321  0.06080  1.0000
  C  Sn113     1.0  0.93512  0.70666  0.15341  1.0000
  C   C181      1.0  0.92000  0.69235  0.19509  1.0000
  C  Sn114     1.0  0.88598  0.71138  0.21407  1.0000
  C  Sn115     1.0  0.86668  0.74544  0.19083  1.0000
  C   C182      1.0  0.88180  0.75973  0.14916  1.0000
  C  Sn116     1.0  0.91582  0.74071  0.13017  1.0000
  O  Te113     1.0  0.96917  0.68716  0.13506  1.0000
  O  Te114     1.0  0.87142  0.69652  0.25582  1.0000
  O  Te115     1.0  0.83261  0.76493  0.20923  1.0000
  O  Te116     1.0  0.93037  0.75556  0.08842  1.0000
  Mg  Mg57      1.0  0.82416  0.73339  0.26688  1.0000
  Mg  Mg58      1.0  0.97763  0.71871  0.07726  1.0000
  C  Sn117     1.0  0.07657  0.26445  0.21444  1.0000
  C   C183      1.0  0.08686  0.28522  0.26811  1.0000
  C  Sn118     1.0  0.12047  0.27246  0.28730  1.0000
  C  Sn119     1.0  0.14430  0.23822  0.25201  1.0000
  C   C184      1.0  0.13401  0.21748  0.19836  1.0000
  C  Sn120     1.0  0.10040  0.23022  0.17916  1.0000
  O  Te117     1.0  0.04284  0.27775  0.19613  1.0000
  O  Te118     1.0  0.13016  0.29371  0.34117  1.0000
  O  Te119     1.0  0.17805  0.22494  0.27038  1.0000
  O  Te120     1.0  0.09071  0.20899  0.12530  1.0000
  Mg  Mg59      1.0  0.17898  0.26387  0.34705  1.0000
  Mg  Mg60      1.0  0.04190  0.23880  0.11930  1.0000
  C  Sn121     1.0  0.05481  0.42009  0.20669  1.0000
  C   C185      1.0  0.02175  0.44067  0.24471  1.0000
  C  Sn122     1.0  0.00870  0.42965  0.32956  1.0000
  C  Sn123     1.0  0.02912  0.39741  0.37751  1.0000
  C   C186      1.0  0.06216  0.37685  0.33952  1.0000
  C  Sn124     1.0  0.07524  0.38785  0.25464  1.0000
  O  Te121     1.0  0.06734  0.43162  0.12178  1.0000
  O  Te122     1.0  0.97557  0.45067  0.36613  1.0000
  O  Te123     1.0  0.01656  0.38589  0.46248  1.0000
  O  Te124     1.0  0.10834  0.36686  0.21809  1.0000
  Mg  Mg61      1.0  0.96992  0.42371  0.48397  1.0000
  Mg  Mg62      1.0  0.11402  0.39379  0.10033  1.0000
  C  Sn125     1.0  0.91628  0.58366  0.19320  1.0000
  C   C187      1.0  0.92209  0.60800  0.24358  1.0000
  C  Sn126     1.0  0.95377  0.59914  0.29259  1.0000
  C  Sn127     1.0  0.98020  0.56524  0.29113  1.0000
  C   C188      1.0  0.97439  0.54093  0.24076  1.0000
  C  Sn128     1.0  0.94272  0.54977  0.19175  1.0000
  O  Te125     1.0  0.88441  0.59309  0.14471  1.0000
  O  Te126     1.0  0.95897  0.62391  0.34249  1.0000
  O  Te127     1.0  0.01209  0.55583  0.33969  1.0000
  O  Te128     1.0  0.93752  0.52501  0.14184  1.0000
  Mg  Mg63      1.0  0.00677  0.59865  0.39740  1.0000
  Mg  Mg64      1.0  0.88973  0.55024  0.08684  1.0000
  C  Sn129     1.0  0.94062  0.47585  0.10266  1.0000
  C   C189      1.0  0.94944  0.49252  0.21251  1.0000
  C  Sn130     1.0  0.93928  0.49860  0.35698  1.0000
  C  Sn131     1.0  0.91993  0.48778  0.39242  1.0000
  C   C190      1.0  0.91114  0.47112  0.28262  1.0000
  C  Sn132     1.0  0.92128  0.46503  0.13810  1.0000
  O  Te129     1.0  0.96042  0.49085  0.95897  1.0000
  O  Te130     1.0  0.94839  0.51532  0.46490  1.0000
  O  Te131     1.0  0.90951  0.49361  0.53625  1.0000
  O  Te132     1.0  0.91218  0.44831  0.03023  1.0000
  Mg  Mg65      1.0  0.92820  0.51736  0.64474  1.0000
  Mg  Mg66      1.0  0.94174  0.46706  0.85038  1.0000
  C  Sn133     1.0  0.04613  0.50665  0.12650  1.0000
  C   C191      1.0  0.03887  0.49249  0.22405  1.0000
  C  Sn134     1.0  0.04809  0.49318  0.37421  1.0000
  C  Sn135     1.0  0.06491  0.50835  0.42802  1.0000
  C   C192      1.0  0.07216  0.52251  0.33050  1.0000
  C  Sn136     1.0  0.06295  0.52183  0.18030  1.0000
  O  Te133     1.0  0.04604  0.52650  0.97682  1.0000
  O  Te134     1.0  0.04057  0.47884  0.46959  1.0000
  O  Te135     1.0  0.07437  0.50931  0.57782  1.0000
  O  Te136     1.0  0.07045  0.53616  0.08495  1.0000
  Mg  Mg67      1.0  0.05858  0.48644  0.66412  1.0000
  Mg  Mg68      1.0  0.06182  0.54940  0.89043  1.0000
  C  Sn137     1.0  0.85878  0.43798  0.62736  1.0000
  C   C193      1.0  0.88379  0.43964  0.70692  1.0000
  C  Sn138     1.0  0.90701  0.41457  0.79539  1.0000
  C  Sn139     1.0  0.90522  0.38727  0.80448  1.0000
  C   C194      1.0  0.88023  0.38562  0.72494  1.0000
  C  Sn140     1.0  0.85699  0.41068  0.63645  1.0000
  O  Te137     1.0  0.83583  0.46332  0.53960  1.0000
  O  Te138     1.0  0.93177  0.41678  0.87394  1.0000
  O  Te139     1.0  0.92820  0.36192  0.89233  1.0000
  O  Te140     1.0  0.83224  0.40847  0.55792  1.0000
  Mg  Mg69      1.0  0.95733  0.37608  0.97836  1.0000
  Mg  Mg70      1.0  0.80669  0.44915  0.45341  1.0000
  C  Sn141     1.0  0.16327  0.57144  0.65394  1.0000
  C   C195      1.0  0.14233  0.57160  0.74519  1.0000
  C  Sn142     1.0  0.12042  0.60027  0.83315  1.0000
  C  Sn143     1.0  0.11940  0.62940  0.82978  1.0000
  C   C196      1.0  0.14034  0.62923  0.73856  1.0000
  C  Sn144     1.0  0.16226  0.60056  0.65057  1.0000
  O  Te141     1.0  0.18498  0.54249  0.56693  1.0000
  O  Te142     1.0  0.09973  0.59983  0.92352  1.0000
  O  Te143     1.0  0.09767  0.65835  0.91689  1.0000
  O  Te144     1.0  0.18294  0.60100  0.56023  1.0000
  Mg  Mg71      1.0  0.06503  0.62462  0.02177  1.0000
  Mg  Mg72      1.0  0.20826  0.55542  0.46188  1.0000
  C  Sn145     1.0  0.92676  0.24441  0.96918  1.0000
  C   C197      1.0  0.92499  0.21988  0.88150  1.0000
  C  Sn146     1.0  0.90875  0.22608  0.74222  1.0000
  C  Sn147     1.0  0.89397  0.25746  0.68942  1.0000
  C   C198      1.0  0.89574  0.28197  0.77706  1.0000
  C  Sn148     1.0  0.91198  0.27579  0.91638  1.0000
  O  Te145     1.0  0.93376  0.21685  0.10807  1.0000
  O  Te146     1.0  0.90730  0.20117  0.65659  1.0000
  O  Te147     1.0  0.87759  0.26419  0.55041  1.0000
  O  Te148     1.0  0.90407  0.27986  0.00197  1.0000
  Mg  Mg73      1.0  0.88224  0.22228  0.47485  1.0000
  Mg  Mg74      1.0  0.92913  0.25878  0.18369  1.0000
  C  Sn149     1.0  0.07883  0.78471  0.87691  1.0000
  C   C199      1.0  0.08010  0.80675  0.80260  1.0000
  C  Sn150     1.0  0.10001  0.79524  0.68128  1.0000
  C  Sn151     1.0  0.11903  0.76100  0.63316  1.0000
  C   C200      1.0  0.11774  0.73898  0.70743  1.0000
  C  Sn152     1.0  0.09785  0.75047  0.82879  1.0000
  O  Te149     1.0  0.05876  0.79677  0.99792  1.0000
  O  Te150     1.0  0.10089  0.81775  0.60879  1.0000
  O  Te151     1.0  0.13911  0.74895  0.51205  1.0000
  O  Te152     1.0  0.09696  0.72798  0.90124  1.0000
  Mg  Mg75      1.0  0.13200  0.78933  0.44952  1.0000
  Mg  Mg76      1.0  0.05648  0.73556  0.06047  1.0000
  C  Sn153     1.0  0.75996  0.36725  0.59717  1.0000
  C   C201      1.0  0.77651  0.38149  0.66296  1.0000
  C  Sn154     1.0  0.75957  0.41181  0.74899  1.0000
  C  Sn155     1.0  0.72536  0.42824  0.76979  1.0000
  C   C202      1.0  0.70882  0.41401  0.70405  1.0000
  C  Sn156     1.0  0.72575  0.38368  0.61797  1.0000
  O  Te153     1.0  0.77740  0.33692  0.51161  1.0000
  O  Te154     1.0  0.77665  0.42556  0.81360  1.0000
  O  Te155     1.0  0.70792  0.45860  0.85543  1.0000
  O  Te156     1.0  0.70868  0.36993  0.55341  1.0000
  Mg  Mg77      1.0  0.74207  0.46733  0.92060  1.0000
  Mg  Mg78      1.0  0.74324  0.32816  0.44646  1.0000
  C  Sn157     1.0  0.25332  0.64055  0.54289  1.0000
  C   C203      1.0  0.23737  0.63343  0.63190  1.0000
  C  Sn158     1.0  0.25533  0.61112  0.73908  1.0000
  C  Sn159     1.0  0.28995  0.59561  0.75777  1.0000
  C   C204      1.0  0.30588  0.60274  0.66882  1.0000
  C  Sn160     1.0  0.28794  0.62505  0.56157  1.0000
  O  Te157     1.0  0.23487  0.66294  0.43644  1.0000
  O  Te158     1.0  0.23884  0.60438  0.82672  1.0000
  O  Te159     1.0  0.30839  0.57321  0.86433  1.0000
  O  Te160     1.0  0.30441  0.63179  0.47400  1.0000
  Mg  Mg79      1.0  0.27474  0.57212  0.95676  1.0000
  Mg  Mg80      1.0  0.26853  0.66406  0.34398  1.0000
  C  Sn161     1.0  0.44375  0.50922  0.57358  1.0000
  C   C205      1.0  0.45587  0.52702  0.64980  1.0000
  C  Sn162     1.0  0.43696  0.55320  0.75541  1.0000
  C  Sn163     1.0  0.40528  0.56176  0.78556  1.0000
  C   C206      1.0  0.39319  0.54396  0.70939  1.0000
  C  Sn164     1.0  0.41208  0.51777  0.60373  1.0000
  O  Te161     1.0  0.46308  0.48314  0.46847  1.0000
  O  Te162     1.0  0.44959  0.57064  0.83015  1.0000
  O  Te163     1.0  0.38596  0.58786  0.89077  1.0000
  O  Te164     1.0  0.39946  0.50033  0.52904  1.0000
  Mg  Mg81      1.0  0.41393  0.60418  0.96355  1.0000
  Mg  Mg82      1.0  0.43510  0.46678  0.39568  1.0000
  C  Sn165     1.0  0.58444  0.50566  0.64987  1.0000
  C   C207      1.0  0.61370  0.48033  0.71479  1.0000
  C  Sn166     1.0  0.61482  0.45480  0.77017  1.0000
  C  Sn167     1.0  0.58609  0.45456  0.76038  1.0000
  C   C208      1.0  0.55686  0.47987  0.69547  1.0000
  C  Sn168     1.0  0.55571  0.50541  0.64008  1.0000
  O  Te165     1.0  0.58389  0.53093  0.59524  1.0000
  O  Te166     1.0  0.64435  0.42976  0.83464  1.0000
  O  Te167     1.0  0.58667  0.42925  0.81509  1.0000
  O  Te168     1.0  0.52620  0.53044  0.57562  1.0000
  Mg  Mg83      1.0  0.63274  0.40068  0.89303  1.0000
  Mg  Mg84      1.0  0.53779  0.55952  0.51713  1.0000
  C  Sn169     1.0  0.47250  0.57895  0.57552  1.0000
  C   C209      1.0  0.49371  0.55459  0.67090  1.0000
  C  Sn170     1.0  0.50099  0.56334  0.81472  1.0000
  C  Sn171     1.0  0.48675  0.59715  0.86428  1.0000
  C   C210      1.0  0.46556  0.62148  0.76894  1.0000
  C  Sn172     1.0  0.45827  0.61275  0.62508  1.0000
  O  Te169     1.0  0.46557  0.56963  0.43220  1.0000
  O  Te170     1.0  0.52227  0.53855  0.90803  1.0000
  O  Te171     1.0  0.48433  0.58563  0.00773  1.0000
  O  Te172     1.0  0.43700  0.63752  0.53181  1.0000
  Mg  Mg85      1.0  0.51476  0.54283  0.09348  1.0000
  Mg  Mg86      1.0  0.43510  0.61246  0.34638  1.0000
  C  Sn173     1.0  0.51380  0.44743  0.84449  1.0000
  C   C211      1.0  0.52861  0.45567  0.75449  1.0000
  C  Sn174     1.0  0.54581  0.43436  0.63172  1.0000
  C  Sn175     1.0  0.54824  0.40420  0.59814  1.0000
  C   C212      1.0  0.53343  0.39597  0.68809  1.0000
  C  Sn176     1.0  0.51623  0.41726  0.81091  1.0000
  O  Te173     1.0  0.49672  0.46910  0.96665  1.0000
  O  Te174     1.0  0.56042  0.44314  0.54341  1.0000
  O  Te175     1.0  0.56533  0.38252  0.47586  1.0000
  O  Te176     1.0  0.50162  0.40850  0.89917  1.0000
  Mg  Mg87      1.0  0.58101  0.40543  0.38901  1.0000
  Mg  Mg88      1.0  0.47164  0.42538  0.05354  1.0000
  C  Sn177     1.0  0.99172  0.09445  0.83934  1.0000
  C   C213      1.0  0.97087  0.11865  0.74276  1.0000
  C  Sn178     1.0  0.94775  0.11624  0.64927  1.0000
  C  Sn179     1.0  0.94539  0.08909  0.65244  1.0000
  C   C214      1.0  0.96622  0.06491  0.74898  1.0000
  C  Sn180     1.0  0.98936  0.06730  0.84250  1.0000
  O  Te177     1.0  0.01466  0.09736  0.93182  1.0000
  O  Te178     1.0  0.92718  0.14074  0.55364  1.0000
  O  Te179     1.0  0.92243  0.08620  0.55984  1.0000
  O  Te180     1.0  0.00991  0.04283  0.93811  1.0000
  Mg  Mg89      1.0  0.89987  0.12583  0.44902  1.0000
  Mg  Mg90      1.0  0.02785  0.03691  0.04282  1.0000
  C  Sn181     1.0  0.05864  0.91511  0.64431  1.0000
  C   C215      1.0  0.04888  0.89986  0.72200  1.0000
  C  Sn182     1.0  0.01894  0.91865  0.79311  1.0000
  C  Sn183     1.0  0.99831  0.95340  0.78636  1.0000
  C   C216      1.0  0.00807  0.96863  0.70869  1.0000
  C  Sn184     1.0  0.03802  0.94986  0.63756  1.0000
  O  Te181     1.0  0.08868  0.89584  0.57404  1.0000
  O  Te182     1.0  0.00971  0.90285  0.87014  1.0000
  O  Te183     1.0  0.96826  0.97267  0.85672  1.0000
  O  Te184     1.0  0.04724  0.96564  0.56054  1.0000
  Mg  Mg91      1.0  0.96648  0.93976  0.94776  1.0000
  Mg  Mg92      1.0  0.09046  0.92876  0.48283  1.0000
  C  Sn185     1.0  0.40438  0.75099  0.54210  1.0000
  C   C217      1.0  0.37666  0.77166  0.62783  1.0000
  C  Sn186     1.0  0.37243  0.76017  0.74861  1.0000
  C  Sn187     1.0  0.39642  0.72734  0.78453  1.0000
  C   C218      1.0  0.42413  0.70669  0.69885  1.0000
  C  Sn188     1.0  0.42837  0.71815  0.57802  1.0000
  O  Te185     1.0  0.40810  0.76299  0.42186  1.0000
  O  Te186     1.0  0.34450  0.78130  0.83265  1.0000
  O  Te187     1.0  0.39268  0.71535  0.90489  1.0000
  O  Te188     1.0  0.45628  0.69705  0.49404  1.0000
  Mg  Mg93      1.0  0.35048  0.75354  0.98584  1.0000
  Mg  Mg94      1.0  0.45034  0.72479  0.34087  1.0000
  C  Sn189     1.0  0.56162  0.28072  0.55507  1.0000
  C   C219      1.0  0.56407  0.30494  0.64179  1.0000
  C  Sn190     1.0  0.59280  0.29612  0.72752  1.0000
  C  Sn191     1.0  0.61967  0.26240  0.72650  1.0000
  C   C220      1.0  0.61721  0.23821  0.63981  1.0000
  C  Sn192     1.0  0.58848  0.24700  0.55405  1.0000
  O  Te189     1.0  0.53266  0.29010  0.47022  1.0000
  O  Te190     1.0  0.59467  0.32076  0.81337  1.0000
  O  Te191     1.0  0.64864  0.25303  0.81146  1.0000
  O  Te192     1.0  0.58662  0.22238  0.46823  1.0000
  Mg  Mg95      1.0  0.63933  0.29563  0.91015  1.0000
  Mg  Mg96      1.0  0.54198  0.24748  0.37135  1.0000
  C  Sn193     1.0  0.21624  0.93173  0.63386  1.0000
  C   C221      1.0  0.19775  0.92280  0.69208  1.0000
  C  Sn194     1.0  0.21319  0.89619  0.77875  1.0000
  C  Sn195     1.0  0.24784  0.87813  0.80793  1.0000
  C   C222      1.0  0.26631  0.88706  0.74976  1.0000
  C  Sn196     1.0  0.25089  0.91367  0.66304  1.0000
  O  Te193     1.0  0.20029  0.95842  0.54751  1.0000
  O  Te194     1.0  0.19419  0.88772  0.83570  1.0000
  O  Te195     1.0  0.26378  0.85142  0.89436  1.0000
  O  Te196     1.0  0.26987  0.92214  0.60613  1.0000
  Mg  Mg97      1.0  0.22725  0.84943  0.94719  1.0000
  Mg  Mg98      1.0  0.23684  0.96044  0.49470  1.0000
  C  Sn197     1.0  0.74835  0.09106  0.66233  1.0000
  C   C223      1.0  0.72376  0.11954  0.74253  1.0000
  C  Sn198     1.0  0.73174  0.13844  0.84174  1.0000
  C  Sn199     1.0  0.76499  0.12868  0.86115  1.0000
  C   C224      1.0  0.78955  0.10021  0.78097  1.0000
  C  Sn200     1.0  0.78159  0.08129  0.68174  1.0000
  O  Te197     1.0  0.73981  0.07254  0.56374  1.0000
  O  Te198     1.0  0.70674  0.16681  0.92071  1.0000
  O  Te199     1.0  0.77352  0.14722  0.95984  1.0000
  O  Te200     1.0  0.80657  0.05294  0.60278  1.0000
  Mg  Mg99      1.0  0.72134  0.16307  0.04195  1.0000
  Mg  Mg100     1.0  0.78263  0.03586  0.48147  1.0000
  C  Sn201     1.0  0.40134  0.87511  0.74765  1.0000
  C   C225      1.0  0.37144  0.88230  0.67871  1.0000
  C  Sn202     1.0  0.36007  0.89754  0.54690  1.0000
  C  Sn203     1.0  0.37899  0.90573  0.48259  1.0000
  C   C226      1.0  0.40888  0.89854  0.55150  1.0000
  C  Sn204     1.0  0.42026  0.88331  0.68334  1.0000
  O  Te201     1.0  0.41223  0.85987  0.87936  1.0000
  O  Te202     1.0  0.33010  0.90449  0.48006  1.0000
  O  Te203     1.0  0.36808  0.92099  0.35078  1.0000
  O  Te204     1.0  0.45022  0.87635  0.75015  1.0000
  Mg  Mg101     1.0  0.32569  0.92544  0.30162  1.0000
  Mg  Mg102     1.0  0.45465  0.85538  0.92855  1.0000
  C  Sn205     1.0  0.56013  0.15256  0.66098  1.0000
  C   C227      1.0  0.56857  0.12144  0.59717  1.0000
  C  Sn206     1.0  0.60139  0.09629  0.56714  1.0000
  C  Sn207     1.0  0.62631  0.10236  0.60169  1.0000
  C   C228      1.0  0.61787  0.13346  0.66549  1.0000
  C  Sn208     1.0  0.58504  0.15863  0.69554  1.0000
  O  Te205     1.0  0.52715  0.17734  0.69005  1.0000
  O  Te206     1.0  0.60923  0.06538  0.50326  1.0000
  O  Te207     1.0  0.65931  0.07754  0.57256  1.0000
  O  Te208     1.0  0.57720  0.18952  0.75940  1.0000
  Mg  Mg103     1.0  0.65766  0.03956  0.48473  1.0000
  Mg  Mg104     1.0  0.52879  0.21535  0.77804  1.0000
  C  Sn209     1.0  0.54205  0.04971  0.69613  1.0000
  C   C229      1.0  0.52311  0.08002  0.63469  1.0000
  C  Sn210     1.0  0.48957  0.09446  0.59856  1.0000
  C  Sn211     1.0  0.47464  0.07827  0.62446  1.0000
  C   C230      1.0  0.49357  0.04799  0.68588  1.0000
  C  Sn212     1.0  0.52711  0.03353  0.72202  1.0000
  O  Te209     1.0  0.57553  0.03573  0.73139  1.0000
  O  Te210     1.0  0.47116  0.12477  0.53721  1.0000
  O  Te211     1.0  0.44113  0.09228  0.58913  1.0000
  O  Te212     1.0  0.97244  0.00324  0.78336  1.0000
  Mg  Mg105     1.0  0.42640  0.13390  0.50789  1.0000
  Mg  Mg106     1.0  0.01719  0.99410  0.81280  1.0000
  C  Sn213     1.0  0.42870  0.97479  0.67032  1.0000
  C   C231      1.0  0.45051  0.94137  0.62252  1.0000
  C  Sn214     1.0  0.48373  0.92818  0.60495  1.0000
  C  Sn215     1.0  0.49541  0.94883  0.63587  1.0000
  C   C232      1.0  0.47360  0.98223  0.68365  1.0000
  C  Sn216     1.0  0.44037  0.99544  0.70124  1.0000
  O  Te213     1.0  0.39559  0.98744  0.68713  1.0000
  O  Te214     1.0  0.50507  0.89470  0.55699  1.0000
  O  Te215     1.0  0.52855  0.93615  0.61901  1.0000
  O  Te216     1.0  0.99214  0.02890  0.74919  1.0000
  Mg  Mg107     1.0  0.54800  0.88899  0.55097  1.0000
  Mg  Mg108     1.0  0.94920  0.03462  0.75532  1.0000
  C  Sn217     1.0  0.55588  0.96599  0.51210  1.0000
  C   C233      1.0  0.53341  0.97294  0.61539  1.0000
  C  Sn218     1.0  0.54433  0.96364  0.75913  1.0000
  C  Sn219     1.0  0.57841  0.94708  0.80054  1.0000
  C   C234      1.0  0.60085  0.94014  0.69729  1.0000
  C  Sn220     1.0  0.58996  0.94942  0.55350  1.0000
  O  Te217     1.0  0.54442  0.97551  0.36902  1.0000
  O  Te218     1.0  0.52140  0.97085  0.86045  1.0000
  O  Te219     1.0  0.58986  0.93755  0.94375  1.0000
  O  Te220     1.0  0.61286  0.94223  0.45224  1.0000
  Mg  Mg109     1.0  0.53970  0.93207  0.04214  1.0000
  Mg  Mg110     1.0  0.58521  0.96020  0.27055  1.0000
  C  Sn221     1.0  0.40719  0.05728  0.51372  1.0000
  C   C235      1.0  0.43067  0.05328  0.62577  1.0000
  C  Sn222     1.0  0.42118  0.06606  0.77121  1.0000
  C  Sn223     1.0  0.38754  0.08318  0.80542  1.0000
  C   C236      1.0  0.36409  0.08717  0.69342  1.0000
  C  Sn224     1.0  0.37355  0.07440  0.54793  1.0000
  O  Te221     1.0  0.41723  0.04430  0.36910  1.0000
  O  Te222     1.0  0.44510  0.06176  0.88133  1.0000
  O  Te223     1.0  0.37752  0.09616  0.95019  1.0000
  O  Te224     1.0  0.34966  0.07869  0.43786  1.0000
  Mg  Mg111     1.0  0.40988  0.06311  0.06172  1.0000
  Mg  Mg112     1.0  0.37548  0.05652  0.25746  1.0000
  C  Sn225     1.0  0.48055  0.00689  0.61222  1.0000
  C   C237      1.0  0.46871  0.99612  0.70550  1.0000
  C  Sn226     1.0  0.48790  0.97956  0.82805  1.0000
  C  Sn227     1.0  0.51959  0.97366  0.85807  1.0000
  C   C238      1.0  0.53141  0.98443  0.76484  1.0000
  C  Sn228     1.0  0.51223  0.00099  0.64223  1.0000
  O  Te225     1.0  0.03402  0.02340  0.49033  1.0000
  O  Te226     1.0  0.47554  0.96901  0.91968  1.0000
  O  Te227     1.0  0.53920  0.95713  0.98008  1.0000
  O  Te228     1.0  0.09767  0.01153  0.55066  1.0000
  Mg  Mg113     1.0  0.50216  0.92677  0.07224  1.0000
  Mg  Mg114     1.0  0.06169  0.03298  0.39812  1.0000
  C  Sn229     1.0  0.34159  0.01135  0.70827  1.0000
  C   C239      1.0  0.88598  0.04051  0.76200  1.0000
  C  Sn230     1.0  0.88481  0.06956  0.79632  1.0000
  C  Sn231     1.0  0.91292  0.06947  0.77643  1.0000
  C   C240      1.0  0.94159  0.04033  0.72271  1.0000
  C  Sn232     1.0  0.36969  0.01126  0.68838  1.0000
  O  Te229     1.0  0.34220  0.98259  0.67467  1.0000
  O  Te230     1.0  0.85584  0.09840  0.84993  1.0000
  O  Te231     1.0  0.91228  0.09826  0.81008  1.0000
  O  Te232     1.0  0.39864  0.98243  0.63478  1.0000
  Mg  Mg115     1.0  0.86713  0.13133  0.87989  1.0000
  Mg  Mg116     1.0  0.38738  0.94950  0.60471  1.0000
  C  Sn233     1.0  0.73211  0.86679  0.44780  1.0000
  C   C241      1.0  0.74846  0.87742  0.54854  1.0000
  C  Sn234     1.0  0.73365  0.89681  0.67906  1.0000
  C  Sn235     1.0  0.70186  0.90575  0.70959  1.0000
  C   C242      1.0  0.68554  0.89512  0.60890  1.0000
  C  Sn236     1.0  0.70032  0.87573  0.47833  1.0000
  O  Te233     1.0  0.74738  0.84743  0.31802  1.0000
  O  Te234     1.0  0.75047  0.90715  0.77806  1.0000
  O  Te235     1.0  0.68660  0.92513  0.83949  1.0000
  O  Te236     1.0  0.68352  0.86539  0.37938  1.0000
  Mg  Mg117     1.0  0.71942  0.93315  0.93987  1.0000
  Mg  Mg118     1.0  0.71456  0.83938  0.21757  1.0000
  C  Sn237     1.0  0.24474  0.11525  0.69540  1.0000
  C   C243      1.0  0.21624  0.14015  0.62438  1.0000
  C  Sn238     1.0  0.21862  0.15421  0.50848  1.0000
  C  Sn239     1.0  0.25014  0.14316  0.46251  1.0000
  C   C244      1.0  0.27862  0.11827  0.53349  1.0000
  C  Sn240     1.0  0.27626  0.10420  0.64943  1.0000
  O  Te237     1.0  0.24177  0.10154  0.81101  1.0000
  O  Te238     1.0  0.18977  0.17907  0.43921  1.0000
  O  Te239     1.0  0.25309  0.15689  0.34680  1.0000
  O  Te240     1.0  0.30508  0.07935  0.71866  1.0000
  Mg  Mg119     1.0  0.20662  0.19006  0.28704  1.0000
  Mg  Mg120     1.0  0.28827  0.06833  0.87079  1.0000
  C  Sn241     1.0  0.89509  0.85849  0.73418  1.0000
  C   C245      1.0  0.86530  0.86503  0.77445  1.0000
  C  Sn242     1.0  0.84414  0.89362  0.86477  1.0000
  C  Sn243     1.0  0.85294  0.91615  0.91585  1.0000
  C   C246      1.0  0.88272  0.90961  0.87556  1.0000
  C  Sn244     1.0  0.90389  0.88103  0.78526  1.0000
  O  Te241     1.0  0.91586  0.82976  0.64378  1.0000
  O  Te242     1.0  0.81449  0.89961  0.90359  1.0000
  O  Te243     1.0  0.82278  0.92409  0.00632  1.0000
  O  Te244     1.0  0.93353  0.87503  0.74642  1.0000
  Mg  Mg121     1.0  0.78506  0.92135  0.02895  1.0000
  Mg  Mg122     1.0  0.95360  0.83250  0.62102  1.0000
  C  Sn245     1.0  0.12976  0.10180  0.90918  1.0000
  C   C247      1.0  0.09904  0.10646  0.87958  1.0000
  C  Sn246     1.0  0.07850  0.12415  0.76190  1.0000
  C  Sn247     1.0  0.08890  0.13745  0.67185  1.0000
  C   C248      1.0  0.11961  0.13278  0.70145  1.0000
  C  Sn248     1.0  0.14016  0.11510  0.81914  1.0000
  O  Te245     1.0  0.14051  0.06322  0.02741  1.0000
  O  Te246     1.0  0.04789  0.12849  0.73450  1.0000
  O  Te247     1.0  0.06875  0.15523  0.55356  1.0000
  O  Te248     1.0  0.17076  0.11075  0.84653  1.0000
  Mg  Mg123     1.0  0.02926  0.15452  0.56054  1.0000
  Mg  Mg124     1.0  0.18004  0.06390  0.02040  1.0000
  C  Sn249     1.0  0.91444  0.72153  0.62000  1.0000
  C   C249      1.0  0.90329  0.70246  0.64769  1.0000
  C  Sn250     1.0  0.86950  0.71596  0.64365  1.0000
  C  Sn251     1.0  0.84636  0.74921  0.61116  1.0000
  C   C250      1.0  0.85751  0.76826  0.58347  1.0000
  C  Sn252     1.0  0.89130  0.75478  0.58751  1.0000
  O  Te249     1.0  0.94833  0.70752  0.62461  1.0000
  O  Te250     1.0  0.85895  0.69641  0.67177  1.0000
  O  Te251     1.0  0.81245  0.76321  0.60657  1.0000
  O  Te252     1.0  0.90186  0.77431  0.55939  1.0000
  Mg  Mg125     1.0  0.81023  0.72664  0.65256  1.0000
  Mg  Mg126     1.0  0.95057  0.74410  0.57850  1.0000
  C  Sn253     1.0  0.11891  0.26299  0.82644  1.0000
  C   C251      1.0  0.10416  0.24795  0.74738  1.0000
  C  Sn254     1.0  0.07950  0.26415  0.63817  1.0000
  C  Sn255     1.0  0.06940  0.29603  0.60725  1.0000
  C   C252      1.0  0.08415  0.31104  0.68626  1.0000
  C  Sn256     1.0  0.10880  0.29486  0.79552  1.0000
  O  Te253     1.0  0.14350  0.24634  0.93513  1.0000
  O  Te254     1.0  0.06511  0.24862  0.56063  1.0000
  O  Te255     1.0  0.04478  0.31267  0.49846  1.0000
  O  Te256     1.0  0.12319  0.31037  0.87301  1.0000
  Mg  Mg127     1.0  0.03262  0.28130  0.42281  1.0000
  Mg  Mg128     1.0  0.14633  0.25690  0.01080  1.0000
  C  Sn257     1.0  0.09234  0.40850  0.68503  1.0000
  C   C253      1.0  0.09124  0.38901  0.77775  1.0000
  C  Sn258     1.0  0.06500  0.40297  0.87130  1.0000
  C  Sn259     1.0  0.03931  0.43711  0.87213  1.0000
  C   C254      1.0  0.04042  0.45657  0.77943  1.0000
  C  Sn260     1.0  0.06665  0.44264  0.68586  1.0000
  O  Te257     1.0  0.11881  0.39402  0.59241  1.0000
  O  Te258     1.0  0.06444  0.38299  0.96304  1.0000
  O  Te259     1.0  0.01283  0.45158  0.96486  1.0000
  O  Te260     1.0  0.06721  0.46259  0.59415  1.0000
  Mg  Mg129     1.0  0.01377  0.39333  0.06951  1.0000
  Mg  Mg130     1.0  0.10849  0.43147  0.48758  1.0000
  C  Sn261     1.0  0.96110  0.60453  0.80381  1.0000
  C   C255      1.0  0.93783  0.61385  0.68539  1.0000
  C  Sn262     1.0  0.93408  0.59041  0.59943  1.0000
  C  Sn263     1.0  0.95398  0.55696  0.63259  1.0000
  C   C256      1.0  0.97722  0.54765  0.75097  1.0000
  C  Sn264     1.0  0.98100  0.57108  0.83697  1.0000
  O  Te261     1.0  0.96443  0.62838  0.88826  1.0000
  O  Te262     1.0  0.91066  0.60033  0.48157  1.0000
  O  Te263     1.0  0.95063  0.53311  0.54802  1.0000
  O  Te264     1.0  0.00440  0.56118  0.95479  1.0000
  Mg  Mg131     1.0  0.91532  0.55873  0.39895  1.0000
  Mg  Mg132     1.0  0.99038  0.58195  0.03752  1.0000
  C  Sn265     1.0  0.95556  0.50616  0.87118  1.0000
  C   C257      1.0  0.98421  0.48843  0.79048  1.0000
  C  Sn266     1.0  0.98860  0.46455  0.67570  1.0000
  C  Sn267     1.0  0.96384  0.45828  0.64078  1.0000
  C   C258      1.0  0.93521  0.47601  0.72143  1.0000
  C  Sn268     1.0  0.93079  0.49989  0.83626  1.0000
  O  Te265     1.0  0.95168  0.52992  0.98546  1.0000
  O  Te266     1.0  0.01746  0.44713  0.59662  1.0000
  O  Te267     1.0  0.96773  0.43449  0.52639  1.0000
  O  Te268     1.0  0.90195  0.51731  0.91529  1.0000
  Mg  Mg133     1.0  0.01133  0.41723  0.45068  1.0000
  Mg  Mg134     1.0  0.89867  0.52641  0.06119  1.0000
  C  Sn269     1.0  0.05052  0.56168  0.74826  1.0000
  C   C259      1.0  0.08227  0.54352  0.81401  1.0000
  C  Sn270     1.0  0.09669  0.51088  0.84318  1.0000
  C  Sn271     1.0  0.07900  0.49606  0.80578  1.0000
  C   C260      1.0  0.04727  0.51421  0.74005  1.0000
  C  Sn272     1.0  0.03283  0.54686  0.71086  1.0000
  O  Te269     1.0  0.03659  0.59428  0.72009  1.0000
  O  Te270     1.0  0.12847  0.49323  0.90904  1.0000
  O  Te271     1.0  0.09296  0.46343  0.83401  1.0000
  O  Te272     1.0  0.00107  0.56450  0.64502  1.0000
  Mg  Mg135     1.0  0.13690  0.44953  0.92531  1.0000
  Mg  Mg136     1.0  0.99263  0.60819  0.62863  1.0000
