data_image0
_chemical_formula_structural       H216C348N36C2Sn2C2HTe2HMgC2Sn2C2HTe2HMgC2Sn2C2HTe2HMgC2Sn2C2HTe2HMgC2Sn2C2HTe2HMgC2Sn2C2HTe2HMgC2Sn2C2HTe2HMgC2Sn2C2HTe2HMgC2Sn2C2HTe2HMgC2Sn2C2HTe2HMgC2Sn2C2HTe2HMgC2Sn2C2HTe2HMgC2Sn2C2HTe2HMgC2Sn2C2HTe2HMgC2Sn2C2HTe2HMgC2Sn2C2HTe2HMgC2Sn2C2HTe2HMgC2Sn2C2HTe2HMgC2Sn2C2HTe2HMgC2Sn2C2HTe2HMgC2Sn2C2HTe2HMgC2Sn2C2HTe2HMgC2Sn2C2HTe2HMgC2Sn2C2HTe2HMgC2Sn2C2HTe2HMgC2Sn2C2HTe2HMgC2Sn2C2HTe2HMgC2Sn2C2HTe2HMgC2Sn2C2HTe2HMgC2Sn2C2HTe2HMgC2Sn2C2HTe2HMgC2Sn2C2HTe2HMgC2Sn2C2HTe2HMgC2Sn2C2HTe2HMgC2Sn2C2HTe2HMgC2Sn2C2HTe2HMg
_chemical_formula_sum              "H288 C492 N36 Sn72 Te72 Mg36"
_cell_length_a       49.6612
_cell_length_b       49.5933
_cell_length_c       9.87929
_cell_angle_alpha    90.0571
_cell_angle_beta     89.7735
_cell_angle_gamma    120.112

_symmetry_space_group_name_H-M    'P1'
_space_group_IT_number       1

loop_
  _space_group_symop_operation_xyz
  'x, y, z'

loop_
  _atom_site_type_symbol
  _atom_site_label
  _atom_site_symmetry_multiplicity
  _atom_site_fract_x
  _atom_site_fract_y
  _atom_site_fract_z
  _atom_site_occupancy
  H   H1        1.0  0.97863  0.92266  0.02138  1.0000
  H   H2        1.0  0.07477  0.06409  0.04287  1.0000
  H   H3        1.0  0.93924  0.01505  0.02675  1.0000
  H   H4        1.0  0.92425  0.93300  0.05406  1.0000
  H   H5        1.0  0.06315  0.98793  0.04410  1.0000
  H   H6        1.0  0.94778  0.86586  0.04293  1.0000
  H   H7        1.0  0.13150  0.09194  0.05560  1.0000
  H   H8        1.0  0.91279  0.04522  0.03285  1.0000
  H   H9        1.0  0.86756  0.90447  0.06573  1.0000
  H   H10       1.0  0.09114  0.95939  0.06150  1.0000
  H   H11       1.0  0.91222  0.87568  0.42684  1.0000
  H   H12       1.0  0.12607  0.03429  0.39200  1.0000
  H   H13       1.0  0.96441  0.09274  0.38958  1.0000
  H   H14       1.0  0.87068  0.96768  0.37212  1.0000
  H   H15       1.0  0.03252  0.90689  0.39619  1.0000
  H   H16       1.0  0.94407  0.93314  0.40386  1.0000
  H   H17       1.0  0.06847  0.00612  0.37634  1.0000
  H   H18       1.0  0.99132  0.06195  0.38049  1.0000
  H   H19       1.0  0.92811  0.99642  0.35940  1.0000
  H   H20       1.0  0.00400  0.93569  0.37552  1.0000
  H   H21       1.0  0.32467  0.20789  0.26484  1.0000
  H   H22       1.0  0.79242  0.11783  0.26019  1.0000
  H   H23       1.0  0.88260  0.67499  0.27105  1.0000
  H   H24       1.0  0.67321  0.79241  0.26137  1.0000
  H   H25       1.0  0.20653  0.88238  0.26865  1.0000
  H   H26       1.0  0.11770  0.32568  0.24946  1.0000
  H   H27       1.0  0.31805  0.11806  0.26792  1.0000
  H   H28       1.0  0.88176  0.20186  0.26211  1.0000
  H   H29       1.0  0.79882  0.68013  0.26715  1.0000
  H   H30       1.0  0.68002  0.88228  0.27002  1.0000
  H   H31       1.0  0.11706  0.79858  0.28002  1.0000
  H   H32       1.0  0.20137  0.32017  0.26091  1.0000
  H   H33       1.0  0.40551  0.20064  0.35181  1.0000
  H   H34       1.0  0.79894  0.20568  0.35061  1.0000
  H   H35       1.0  0.79471  0.59293  0.35080  1.0000
  H   H36       1.0  0.59259  0.79960  0.35639  1.0000
  H   H37       1.0  0.20026  0.79370  0.33616  1.0000
  H   H38       1.0  0.20509  0.40701  0.34557  1.0000
  H   H39       1.0  0.74623  0.11276  0.15834  1.0000
  H   H40       1.0  0.88538  0.63246  0.15151  1.0000
  H   H41       1.0  0.25336  0.88935  0.16400  1.0000
  H   H42       1.0  0.68900  0.09060  0.18100  1.0000
  H   H43       1.0  0.90679  0.59655  0.16594  1.0000
  H   H44       1.0  0.31055  0.91138  0.18524  1.0000
  H   H45       1.0  0.84976  0.55135  0.01564  1.0000
  H   H46       1.0  0.29786  0.85226  0.02908  1.0000
  H   H47       1.0  0.15093  0.44920  0.01072  1.0000
  H   H48       1.0  0.82772  0.58637  0.00363  1.0000
  H   H49       1.0  0.24086  0.83040  0.01602  1.0000
  H   H50       1.0  0.17328  0.41454  0.00033  1.0000
  H   H51       1.0  0.70987  0.82273  0.07471  1.0000
  H   H52       1.0  0.10987  0.28859  0.07261  1.0000
  H   H53       1.0  0.76653  0.84869  0.02831  1.0000
  H   H54       1.0  0.07939  0.23174  0.02994  1.0000
  H   H55       1.0  0.78373  0.91493  0.34486  1.0000
  H   H56       1.0  0.13334  0.21639  0.32681  1.0000
  H   H57       1.0  0.72669  0.88935  0.38960  1.0000
  H   H58       1.0  0.16414  0.27352  0.36977  1.0000
  H   H59       1.0  0.33949  0.09694  0.39948  1.0000
  H   H60       1.0  0.90160  0.24401  0.40522  1.0000
  H   H61       1.0  0.75503  0.65980  0.35511  1.0000
  H   H62       1.0  0.65881  0.90370  0.40037  1.0000
  H   H63       1.0  0.24148  0.34136  0.41405  1.0000
  H   H64       1.0  0.36649  0.06644  0.41063  1.0000
  H   H65       1.0  0.93116  0.30163  0.42418  1.0000
  H   H66       1.0  0.69770  0.63257  0.35940  1.0000
  H   H67       1.0  0.63164  0.93393  0.41754  1.0000
  H   H68       1.0  0.29887  0.36785  0.43584  1.0000
  H   H69       1.0  0.45075  0.14534  0.26325  1.0000
  H   H70       1.0  0.85339  0.30643  0.26325  1.0000
  H   H71       1.0  0.69360  0.54488  0.29490  1.0000
  H   H72       1.0  0.54656  0.85434  0.28476  1.0000
  H   H73       1.0  0.30731  0.45178  0.26970  1.0000
  H   H74       1.0  0.42330  0.17550  0.24372  1.0000
  H   H75       1.0  0.82429  0.24880  0.23642  1.0000
  H   H76       1.0  0.75103  0.57215  0.27958  1.0000
  H   H77       1.0  0.57411  0.82448  0.25798  1.0000
  H   H78       1.0  0.24989  0.42487  0.23996  1.0000
  H   H79       1.0  0.45705  0.34923  0.46252  1.0000
  H   H80       1.0  0.65047  0.10647  0.46784  1.0000
  H   H81       1.0  0.89336  0.54341  0.45357  1.0000
  H   H82       1.0  0.54256  0.65023  0.45740  1.0000
  H   H83       1.0  0.34846  0.89110  0.45845  1.0000
  H   H84       1.0  0.10541  0.45553  0.45300  1.0000
  H   H85       1.0  0.17873  0.10693  0.06924  1.0000
  H   H86       1.0  0.88921  0.06870  0.07681  1.0000
  H   H87       1.0  0.93745  0.82286  0.13932  1.0000
  H   H88       1.0  0.81942  0.89152  0.06414  1.0000
  H   H89       1.0  0.10303  0.92405  0.06939  1.0000
  H   H90       1.0  0.06878  0.17940  0.06874  1.0000
  H   H91       1.0  0.41006  0.06016  0.35893  1.0000
  H   H92       1.0  0.93757  0.35137  0.36957  1.0000
  H   H93       1.0  0.64860  0.58782  0.32978  1.0000
  H   H94       1.0  0.58761  0.93995  0.36918  1.0000
  H   H95       1.0  0.06227  0.64845  0.38111  1.0000
  H   H96       1.0  0.34984  0.41061  0.37795  1.0000
  H   H97       1.0  0.05245  0.53757  0.46699  1.0000
  H   H98       1.0  0.53776  0.48532  0.47482  1.0000
  H   H99       1.0  0.09475  0.59268  0.48183  1.0000
  H   H100      1.0  0.59319  0.49895  0.48485  1.0000
  H   H101      1.0  0.05405  0.61608  0.15150  1.0000
  H   H102      1.0  0.61394  0.55997  0.14288  1.0000
  H   H103      1.0  0.01172  0.56115  0.13818  1.0000
  H   H104      1.0  0.55908  0.54736  0.13750  1.0000
  H   H105      1.0  0.99029  0.55269  0.45190  1.0000
  H   H106      1.0  0.94914  0.56662  0.43247  1.0000
  H   H107      1.0  0.94565  0.48276  0.14490  1.0000
  H   H108      1.0  0.90541  0.49812  0.11843  1.0000
  H   H109      1.0  0.07719  0.06135  0.52853  1.0000
  H   H110      1.0  0.93774  0.01274  0.53574  1.0000
  H   H111      1.0  0.06102  0.98467  0.53076  1.0000
  H   H112      1.0  0.13384  0.08840  0.54315  1.0000
  H   H113      1.0  0.91088  0.04260  0.54663  1.0000
  H   H114      1.0  0.08733  0.95429  0.54278  1.0000
  H   H115      1.0  0.12679  0.03601  0.90213  1.0000
  H   H116      1.0  0.96740  0.09381  0.88724  1.0000
  H   H117      1.0  0.03664  0.91047  0.90838  1.0000
  H   H118      1.0  0.06916  0.00841  0.88405  1.0000
  H   H119      1.0  0.99494  0.06383  0.87157  1.0000
  H   H120      1.0  0.01001  0.94127  0.89322  1.0000
  H   H121      1.0  0.32610  0.20617  0.77457  1.0000
  H   H122      1.0  0.79347  0.11780  0.77354  1.0000
  H   H123      1.0  0.88203  0.67414  0.77399  1.0000
  H   H124      1.0  0.67547  0.79284  0.76724  1.0000
  H   H125      1.0  0.20761  0.88249  0.77081  1.0000
  H   H126      1.0  0.11932  0.32596  0.76580  1.0000
  H   H127      1.0  0.31941  0.11646  0.79929  1.0000
  H   H128      1.0  0.88268  0.20208  0.78352  1.0000
  H   H129      1.0  0.79903  0.68065  0.80746  1.0000
  H   H130      1.0  0.68159  0.88244  0.78666  1.0000
  H   H131      1.0  0.11829  0.79849  0.79528  1.0000
  H   H132      1.0  0.20252  0.32004  0.79940  1.0000
  H   H133      1.0  0.40651  0.19967  0.87962  1.0000
  H   H134      1.0  0.79928  0.20533  0.86429  1.0000
  H   H135      1.0  0.79413  0.59228  0.86034  1.0000
  H   H136      1.0  0.59437  0.79907  0.86393  1.0000
  H   H137      1.0  0.20181  0.79593  0.87894  1.0000
  H   H138      1.0  0.20619  0.40740  0.86814  1.0000
  H   H139      1.0  0.88418  0.63132  0.65241  1.0000
  H   H140      1.0  0.25290  0.88329  0.65272  1.0000
  H   H141      1.0  0.11562  0.36739  0.65625  1.0000
  H   H142      1.0  0.90556  0.59544  0.66275  1.0000
  H   H143      1.0  0.31022  0.90476  0.66517  1.0000
  H   H144      1.0  0.09368  0.40277  0.66600  1.0000
  H   H145      1.0  0.70379  0.15051  0.52146  1.0000
  H   H146      1.0  0.84975  0.55266  0.51590  1.0000
  H   H147      1.0  0.29516  0.84608  0.50334  1.0000
  H   H148      1.0  0.76079  0.17336  0.49662  1.0000
  H   H149      1.0  0.82766  0.58760  0.49969  1.0000
  H   H150      1.0  0.23825  0.82361  0.48110  1.0000
  H   H151      1.0  0.82295  0.11091  0.59341  1.0000
  H   H152      1.0  0.88665  0.71116  0.59370  1.0000
  H   H153      1.0  0.84897  0.08032  0.54763  1.0000
  H   H154      1.0  0.91690  0.76790  0.54769  1.0000
  H   H155      1.0  0.91899  0.13420  0.84279  1.0000
  H   H156      1.0  0.87062  0.78477  0.87764  1.0000
  H   H157      1.0  0.89290  0.16493  0.88978  1.0000
  H   H158      1.0  0.83964  0.72768  0.92277  1.0000
  H   H159      1.0  0.34125  0.09556  0.93187  1.0000
  H   H160      1.0  0.90055  0.24421  0.94010  1.0000
  H   H161      1.0  0.75604  0.65451  0.95950  1.0000
  H   H162      1.0  0.65902  0.90118  0.93884  1.0000
  H   H163      1.0  0.09927  0.75712  0.94695  1.0000
  H   H164      1.0  0.36877  0.06565  0.94296  1.0000
  H   H165      1.0  0.93041  0.30196  0.95148  1.0000
  H   H166      1.0  0.69834  0.62665  0.96917  1.0000
  H   H167      1.0  0.63182  0.93150  0.95676  1.0000
  H   H168      1.0  0.06921  0.69942  0.96136  1.0000
  H   H169      1.0  0.45294  0.14548  0.80126  1.0000
  H   H170      1.0  0.85497  0.30625  0.76106  1.0000
  H   H171      1.0  0.69395  0.54939  0.75239  1.0000
  H   H172      1.0  0.54943  0.85519  0.78447  1.0000
  H   H173      1.0  0.14686  0.69453  0.79686  1.0000
  H   H174      1.0  0.42506  0.17504  0.78143  1.0000
  H   H175      1.0  0.82562  0.24845  0.74289  1.0000
  H   H176      1.0  0.75176  0.57791  0.73539  1.0000
  H   H177      1.0  0.57702  0.82527  0.75916  1.0000
  H   H178      1.0  0.17659  0.75223  0.77566  1.0000
  H   H179      1.0  0.45879  0.34912  0.96056  1.0000
  H   H180      1.0  0.65097  0.10874  0.96534  1.0000
  H   H181      1.0  0.89123  0.54056  0.94841  1.0000
  H   H182      1.0  0.54184  0.65029  0.95035  1.0000
  H   H183      1.0  0.35000  0.89384  0.96249  1.0000
  H   H184      1.0  0.10984  0.45986  0.94669  1.0000
  H   H185      1.0  0.18110  0.11065  0.58738  1.0000
  H   H186      1.0  0.88951  0.06866  0.58646  1.0000
  H   H187      1.0  0.92760  0.82015  0.58669  1.0000
  H   H188      1.0  0.82242  0.88721  0.60563  1.0000
  H   H189      1.0  0.11406  0.93478  0.60625  1.0000
  H   H190      1.0  0.07406  0.18098  0.57080  1.0000
  H   H191      1.0  0.41260  0.05974  0.88547  1.0000
  H   H192      1.0  0.93819  0.35142  0.88215  1.0000
  H   H193      1.0  0.64883  0.58577  0.89109  1.0000
  H   H194      1.0  0.58953  0.93921  0.89444  1.0000
  H   H195      1.0  0.06208  0.64968  0.89850  1.0000
  H   H196      1.0  0.35135  0.41376  0.91611  1.0000
  H   H197      1.0  0.51807  0.05365  0.97232  1.0000
  H   H198      1.0  0.53661  0.47893  0.94504  1.0000
  H   H199      1.0  0.50372  0.09471  0.99648  1.0000
  H   H200      1.0  0.59169  0.49199  0.95654  1.0000
  H   H201      1.0  0.43738  0.05268  0.67446  1.0000
  H   H202      1.0  0.61732  0.56797  0.67964  1.0000
  H   H203      1.0  0.45083  0.01110  0.65511  1.0000
  H   H204      1.0  0.56255  0.55539  0.67038  1.0000
  H   H205      1.0  0.56039  0.01400  0.98622  1.0000
  H   H206      1.0  0.45161  0.43852  0.97696  1.0000
  H   H207      1.0  0.43948  0.98991  0.96775  1.0000
  H   H208      1.0  0.61559  0.05508  0.96914  1.0000
  H   H209      1.0  0.43755  0.38334  0.95813  1.0000
  H   H210      1.0  0.38423  0.94909  0.94847  1.0000
  H   H211      1.0  0.53884  0.05049  0.63572  1.0000
  H   H212      1.0  0.51421  0.46203  0.63965  1.0000
  H   H213      1.0  0.46375  0.94617  0.65298  1.0000
  H   H214      1.0  0.59465  0.09081  0.61239  1.0000
  H   H215      1.0  0.49873  0.40639  0.61394  1.0000
  H   H216      1.0  0.40801  0.90645  0.62517  1.0000
  C   C1        1.0  0.93109  0.96733  0.20477  1.0000
  C   C2        1.0  0.03108  0.96409  0.20759  1.0000
  C   C3        1.0  0.96370  0.93232  0.21157  1.0000
  C   C4        1.0  0.06703  0.03255  0.20733  1.0000
  C   C5        1.0  0.96737  0.03602  0.20322  1.0000
  C   C6        1.0  0.98342  0.01736  0.19972  1.0000
  C   C7        1.0  0.98186  0.96706  0.20136  1.0000
  C   C8        1.0  0.03232  0.01585  0.20109  1.0000
  C   C9        1.0  0.01490  0.98266  0.20136  1.0000
  C   C10       1.0  0.01650  0.03311  0.20056  1.0000
  C   C11       1.0  0.96590  0.98419  0.20019  1.0000
  C   C12       1.0  0.96471  0.91262  0.11203  1.0000
  C   C13       1.0  0.08585  0.05714  0.11867  1.0000
  C   C14       1.0  0.94487  0.03196  0.10699  1.0000
  C   C15       1.0  0.91278  0.94107  0.12317  1.0000
  C   C16       1.0  0.05593  0.96991  0.12060  1.0000
  C   C17       1.0  0.94735  0.88034  0.12473  1.0000
  C   C18       1.0  0.11814  0.07303  0.12643  1.0000
  C   C19       1.0  0.92959  0.04897  0.11144  1.0000
  C   C20       1.0  0.88044  0.92473  0.13028  1.0000
  C   C21       1.0  0.07193  0.95366  0.13082  1.0000
  C   C22       1.0  0.92829  0.86640  0.23927  1.0000
  C   C23       1.0  0.13330  0.06482  0.22480  1.0000
  C   C24       1.0  0.93632  0.07117  0.21443  1.0000
  C   C25       1.0  0.86459  0.93426  0.21966  1.0000
  C   C26       1.0  0.06358  0.93035  0.23015  1.0000
  C   C27       1.0  0.92690  0.88610  0.33831  1.0000
  C   C28       1.0  0.11459  0.04032  0.31410  1.0000
  C   C29       1.0  0.95918  0.07567  0.30992  1.0000
  C   C30       1.0  0.88270  0.96051  0.30125  1.0000
  C   C31       1.0  0.03868  0.92433  0.31734  1.0000
  C   C32       1.0  0.94459  0.91826  0.32469  1.0000
  C   C33       1.0  0.08233  0.02469  0.30534  1.0000
  C   C34       1.0  0.97412  0.05835  0.30458  1.0000
  C   C35       1.0  0.91500  0.97648  0.29395  1.0000
  C   C36       1.0  0.02286  0.94071  0.30576  1.0000
  C   C37       1.0  0.44838  0.34079  0.35980  1.0000
  C   C38       1.0  0.65904  0.10630  0.36501  1.0000
  C   C39       1.0  0.89275  0.55180  0.35109  1.0000
  C   C40       1.0  0.55153  0.65903  0.35513  1.0000
  C   C41       1.0  0.34022  0.89291  0.35739  1.0000
  C   C42       1.0  0.10524  0.44699  0.34991  1.0000
  C   C43       1.0  0.18548  0.09990  0.16291  1.0000
  C   C44       1.0  0.89919  0.08583  0.15931  1.0000
  C   C45       1.0  0.91660  0.81493  0.20319  1.0000
  C   C46       1.0  0.81254  0.89874  0.15736  1.0000
  C   C47       1.0  0.09787  0.91235  0.16859  1.0000
  C   C48       1.0  0.08513  0.18650  0.15399  1.0000
  C   C49       1.0  0.36742  0.20814  0.30878  1.0000
  C   C50       1.0  0.79170  0.16005  0.30596  1.0000
  C   C51       1.0  0.84005  0.63166  0.30995  1.0000
  C   C52       1.0  0.63055  0.79214  0.30869  1.0000
  C   C53       1.0  0.20751  0.83982  0.30412  1.0000
  C   C54       1.0  0.15977  0.36869  0.29717  1.0000
  C   C55       1.0  0.33568  0.19380  0.27612  1.0000
  C   C56       1.0  0.80632  0.14299  0.27172  1.0000
  C   C57       1.0  0.85739  0.66362  0.28026  1.0000
  C   C58       1.0  0.66224  0.80651  0.27437  1.0000
  C   C59       1.0  0.19275  0.85714  0.27810  1.0000
  C   C60       1.0  0.14278  0.33696  0.26280  1.0000
  C   C61       1.0  0.31755  0.16121  0.26533  1.0000
  C   C62       1.0  0.83887  0.15772  0.25958  1.0000
  C   C63       1.0  0.84267  0.68144  0.27011  1.0000
  C   C64       1.0  0.68043  0.83909  0.26431  1.0000
  C   C65       1.0  0.16014  0.84249  0.27161  1.0000
  C   C66       1.0  0.15743  0.31904  0.25321  1.0000
  C   C67       1.0  0.33184  0.14315  0.28247  1.0000
  C   C68       1.0  0.85669  0.19018  0.27723  1.0000
  C   C69       1.0  0.81014  0.66648  0.28297  1.0000
  C   C70       1.0  0.66620  0.85717  0.28409  1.0000
  C   C71       1.0  0.14225  0.81003  0.28918  1.0000
  C   C72       1.0  0.18971  0.33360  0.27459  1.0000
  C   C73       1.0  0.36372  0.15701  0.31126  1.0000
  C   C74       1.0  0.84253  0.20787  0.30761  1.0000
  C   C75       1.0  0.79211  0.63437  0.30991  1.0000
  C   C76       1.0  0.63433  0.84331  0.31486  1.0000
  C   C77       1.0  0.15653  0.79210  0.30997  1.0000
  C   C78       1.0  0.20733  0.36540  0.30676  1.0000
  C   C79       1.0  0.38093  0.18947  0.32681  1.0000
  C   C80       1.0  0.81011  0.19234  0.32394  1.0000
  C   C81       1.0  0.80775  0.61763  0.32661  1.0000
  C   C82       1.0  0.61711  0.81080  0.32948  1.0000
  C   C83       1.0  0.18906  0.80738  0.31796  1.0000
  C   C84       1.0  0.19188  0.38245  0.31905  1.0000
  C   C85       1.0  0.37947  0.13856  0.32171  1.0000
  C   C86       1.0  0.86061  0.24214  0.32088  1.0000
  C   C87       1.0  0.75773  0.61819  0.31764  1.0000
  C   C88       1.0  0.61849  0.86169  0.32891  1.0000
  C   C89       1.0  0.24141  0.38113  0.32526  1.0000
  C   C90       1.0  0.71419  0.85421  0.23533  1.0000
  C   C91       1.0  0.13921  0.28523  0.22451  1.0000
  C   C92       1.0  0.75764  0.14514  0.32393  1.0000
  C   C93       1.0  0.85457  0.61211  0.32311  1.0000
  C   C94       1.0  0.24160  0.85445  0.31920  1.0000
  C   C95       1.0  0.73694  0.12098  0.23803  1.0000
  C   C96       1.0  0.87764  0.61501  0.23137  1.0000
  C   C97       1.0  0.26246  0.87989  0.23863  1.0000
  C   C98       1.0  0.70498  0.10872  0.24956  1.0000
  C   C99       1.0  0.88943  0.59489  0.23818  1.0000
  C   C100      1.0  0.29442  0.89208  0.24909  1.0000
  C   C101      1.0  0.69266  0.11971  0.34987  1.0000
  C   C102      1.0  0.87909  0.57178  0.33916  1.0000
  C   C103      1.0  0.30663  0.87965  0.34263  1.0000
  C   C104      1.0  0.71317  0.14278  0.44008  1.0000
  C   C105      1.0  0.85695  0.56961  0.43414  1.0000
  C   C106      1.0  0.28594  0.85508  0.42706  1.0000
  C   C107      1.0  0.74517  0.15561  0.42588  1.0000
  C   C108      1.0  0.84452  0.58919  0.42485  1.0000
  C   C109      1.0  0.25397  0.84243  0.41422  1.0000
  C   C110      1.0  0.72599  0.84271  0.13509  1.0000
  C   C111      1.0  0.11480  0.27285  0.13000  1.0000
  C   C112      1.0  0.75788  0.85737  0.10892  1.0000
  C   C113      1.0  0.09773  0.24086  0.10570  1.0000
  C   C114      1.0  0.77907  0.88358  0.18434  1.0000
  C   C115      1.0  0.10411  0.22010  0.17668  1.0000
  C   C116      1.0  0.76726  0.89488  0.28588  1.0000
  C   C117      1.0  0.12864  0.23249  0.27110  1.0000
  C   C118      1.0  0.73547  0.88065  0.30973  1.0000
  C   C119      1.0  0.14586  0.26438  0.29385  1.0000
  C   C120      1.0  0.36370  0.10752  0.36773  1.0000
  C   C121      1.0  0.89106  0.25755  0.37253  1.0000
  C   C122      1.0  0.74192  0.63471  0.33994  1.0000
  C   C123      1.0  0.63436  0.89284  0.37315  1.0000
  C   C124      1.0  0.25577  0.36539  0.38048  1.0000
  C   C125      1.0  0.37897  0.09049  0.37524  1.0000
  C   C126      1.0  0.90755  0.28989  0.38442  1.0000
  C   C127      1.0  0.70957  0.61935  0.34401  1.0000
  C   C128      1.0  0.61899  0.90976  0.38417  1.0000
  C   C129      1.0  0.28800  0.38038  0.39411  1.0000
  C   C130      1.0  0.41061  0.10410  0.33946  1.0000
  C   C131      1.0  0.89395  0.30777  0.34724  1.0000
  C   C132      1.0  0.69177  0.58679  0.32920  1.0000
  C   C133      1.0  0.58708  0.89592  0.35433  1.0000
  C   C134      1.0  0.30683  0.41175  0.35532  1.0000
  C   C135      1.0  0.42649  0.13516  0.29358  1.0000
  C   C136      1.0  0.86352  0.29246  0.29527  1.0000
  C   C137      1.0  0.70737  0.57002  0.30835  1.0000
  C   C138      1.0  0.57105  0.86472  0.31075  1.0000
  C   C139      1.0  0.29254  0.42773  0.30199  1.0000
  C   C140      1.0  0.41106  0.15190  0.28406  1.0000
  C   C141      1.0  0.84733  0.26027  0.28163  1.0000
  C   C142      1.0  0.73963  0.58552  0.30138  1.0000
  C   C143      1.0  0.58659  0.84813  0.29726  1.0000
  C   C144      1.0  0.26046  0.41259  0.28668  1.0000
  C   C145      1.0  0.42572  0.08541  0.34554  1.0000
  C   C146      1.0  0.91241  0.34167  0.35481  1.0000
  C   C147      1.0  0.65796  0.57184  0.33116  1.0000
  C   C148      1.0  0.57190  0.91457  0.36141  1.0000
  C   C149      1.0  0.08710  0.65826  0.35646  1.0000
  C   C150      1.0  0.34062  0.42647  0.36275  1.0000
  C   C151      1.0  0.02843  0.54518  0.30333  1.0000
  C   C152      1.0  0.54448  0.51610  0.30792  1.0000
  C   C153      1.0  0.51328  0.00033  0.31512  1.0000
  C   C154      1.0  0.99957  0.51401  0.30245  1.0000
  C   C155      1.0  0.48586  0.48599  0.31021  1.0000
  C   C156      1.0  0.48573  0.00020  0.31338  1.0000
  C   C157      1.0  0.99900  0.48619  0.30521  1.0000
  C   C158      1.0  0.51334  0.51362  0.30872  1.0000
  C   C159      1.0  0.97131  0.51703  0.29872  1.0000
  C   C160      1.0  0.05286  0.55459  0.39661  1.0000
  C   C161      1.0  0.55438  0.50167  0.40201  1.0000
  C   C162      1.0  0.07682  0.58557  0.40500  1.0000
  C   C163      1.0  0.58543  0.50909  0.40755  1.0000
  C   C164      1.0  0.07646  0.60833  0.32147  1.0000
  C   C165      1.0  0.60766  0.53176  0.31991  1.0000
  C   C166      1.0  0.05329  0.59882  0.22170  1.0000
  C   C167      1.0  0.59742  0.54436  0.21806  1.0000
  C   C168      1.0  0.02989  0.56790  0.21342  1.0000
  C   C169      1.0  0.56652  0.53673  0.21370  1.0000
  C   C170      1.0  0.92457  0.53347  0.27337  1.0000
  C   C171      1.0  0.97127  0.54019  0.38116  1.0000
  C   C172      1.0  0.94828  0.54806  0.37055  1.0000
  C   C173      1.0  0.94634  0.50101  0.20846  1.0000
  C   C174      1.0  0.92363  0.50945  0.19383  1.0000
  C   C175      1.0  0.03315  0.96510  0.70997  1.0000
  C   C176      1.0  0.06860  0.03253  0.70472  1.0000
  C   C177      1.0  0.96859  0.03597  0.70248  1.0000
  C   C178      1.0  0.98518  0.01785  0.69554  1.0000
  C   C179      1.0  0.98328  0.96719  0.69890  1.0000
  C   C180      1.0  0.03385  0.01613  0.69765  1.0000
  C   C181      1.0  0.01643  0.98304  0.70018  1.0000
  C   C182      1.0  0.01828  0.03359  0.69589  1.0000
  C   C183      1.0  0.96781  0.98477  0.69593  1.0000
  C   C184      1.0  0.08782  0.05558  0.61082  1.0000
  C   C185      1.0  0.94445  0.03058  0.61277  1.0000
  C   C186      1.0  0.05565  0.96850  0.61408  1.0000
  C   C187      1.0  0.12012  0.07112  0.61980  1.0000
  C   C188      1.0  0.92901  0.04743  0.62006  1.0000
  C   C189      1.0  0.07087  0.95148  0.62210  1.0000
  C   C190      1.0  0.13479  0.06416  0.72512  1.0000
  C   C191      1.0  0.93707  0.07070  0.71952  1.0000
  C   C192      1.0  0.06424  0.93010  0.72877  1.0000
  C   C193      1.0  0.11564  0.04111  0.81939  1.0000
  C   C194      1.0  0.96125  0.07619  0.80930  1.0000
  C   C195      1.0  0.04174  0.92666  0.82510  1.0000
  C   C196      1.0  0.08341  0.02580  0.80916  1.0000
  C   C197      1.0  0.97645  0.05916  0.80088  1.0000
  C   C198      1.0  0.02683  0.94397  0.81619  1.0000
  C   C199      1.0  0.44923  0.34031  0.85926  1.0000
  C   C200      1.0  0.65966  0.10776  0.86380  1.0000
  C   C201      1.0  0.89221  0.55055  0.84779  1.0000
  C   C202      1.0  0.55193  0.65885  0.84922  1.0000
  C   C203      1.0  0.34146  0.89338  0.85933  1.0000
  C   C204      1.0  0.10780  0.44895  0.84728  1.0000
  C   C205      1.0  0.18734  0.10057  0.67247  1.0000
  C   C206      1.0  0.90001  0.08586  0.66839  1.0000
  C   C207      1.0  0.91392  0.81365  0.68118  1.0000
  C   C208      1.0  0.81510  0.89872  0.68057  1.0000
  C   C209      1.0  0.10210  0.91589  0.68063  1.0000
  C   C210      1.0  0.08829  0.18728  0.66311  1.0000
  C   C211      1.0  0.36870  0.20692  0.82724  1.0000
  C   C212      1.0  0.79244  0.15987  0.81938  1.0000
  C   C213      1.0  0.83976  0.63097  0.81855  1.0000
  C   C214      1.0  0.63254  0.79198  0.81459  1.0000
  C   C215      1.0  0.20859  0.84077  0.82392  1.0000
  C   C216      1.0  0.16102  0.36901  0.81798  1.0000
  C   C217      1.0  0.33707  0.19222  0.79211  1.0000
  C   C218      1.0  0.80731  0.14295  0.78643  1.0000
  C   C219      1.0  0.85702  0.66304  0.79020  1.0000
  C   C220      1.0  0.66438  0.80678  0.78215  1.0000
  C   C221      1.0  0.19371  0.85750  0.78844  1.0000
  C   C222      1.0  0.14422  0.33717  0.78461  1.0000
  C   C223      1.0  0.31894  0.15953  0.78565  1.0000
  C   C224      1.0  0.83997  0.15787  0.77692  1.0000
  C   C225      1.0  0.84261  0.68128  0.78917  1.0000
  C   C226      1.0  0.68249  0.83949  0.77535  1.0000
  C   C227      1.0  0.16101  0.84264  0.78201  1.0000
  C   C228      1.0  0.15887  0.31916  0.78113  1.0000
  C   C229      1.0  0.33315  0.14163  0.81070  1.0000
  C   C230      1.0  0.85757  0.19027  0.79744  1.0000
  C   C231      1.0  0.81039  0.66679  0.81334  1.0000
  C   C232      1.0  0.66802  0.85725  0.79857  1.0000
  C   C233      1.0  0.14343  0.81041  0.80742  1.0000
  C   C234      1.0  0.19092  0.33364  0.80817  1.0000
  C   C235      1.0  0.36495  0.15577  0.84201  1.0000
  C   C236      1.0  0.84317  0.20780  0.82698  1.0000
  C   C237      1.0  0.79243  0.63451  0.83561  1.0000
  C   C238      1.0  0.63614  0.84299  0.82926  1.0000
  C   C239      1.0  0.15780  0.79310  0.84082  1.0000
  C   C240      1.0  0.20841  0.36562  0.83715  1.0000
  C   C241      1.0  0.38203  0.18835  0.85287  1.0000
  C   C242      1.0  0.81069  0.19211  0.83957  1.0000
  C   C243      1.0  0.80763  0.61717  0.84033  1.0000
  C   C244      1.0  0.61898  0.81042  0.83862  1.0000
  C   C245      1.0  0.19030  0.80884  0.85115  1.0000
  C   C246      1.0  0.19297  0.38272  0.84381  1.0000
  C   C247      1.0  0.38108  0.13769  0.85664  1.0000
  C   C248      1.0  0.86099  0.24211  0.84001  1.0000
  C   C249      1.0  0.75813  0.61816  0.84751  1.0000
  C   C250      1.0  0.62009  0.86105  0.84710  1.0000
  C   C251      1.0  0.14000  0.75893  0.85885  1.0000
  C   C252      1.0  0.85574  0.13991  0.74631  1.0000
  C   C253      1.0  0.86098  0.71522  0.76188  1.0000
  C   C254      1.0  0.85404  0.61108  0.82629  1.0000
  C   C255      1.0  0.24278  0.85512  0.83293  1.0000
  C   C256      1.0  0.14651  0.38873  0.82604  1.0000
  C   C257      1.0  0.87668  0.61389  0.73223  1.0000
  C   C258      1.0  0.26278  0.87663  0.73543  1.0000
  C   C259      1.0  0.12338  0.38529  0.73398  1.0000
  C   C260      1.0  0.88851  0.59377  0.73678  1.0000
  C   C261      1.0  0.29474  0.88839  0.74109  1.0000
  C   C262      1.0  0.11125  0.40518  0.73817  1.0000
  C   C263      1.0  0.87860  0.57060  0.83745  1.0000
  C   C264      1.0  0.30779  0.87949  0.84603  1.0000
  C   C265      1.0  0.12140  0.42887  0.83644  1.0000
  C   C266      1.0  0.85670  0.56834  0.93408  1.0000
  C   C267      1.0  0.28793  0.85852  0.94511  1.0000
  C   C268      1.0  0.14384  0.43181  0.93088  1.0000
  C   C269      1.0  0.84432  0.58800  0.92731  1.0000
  C   C270      1.0  0.25592  0.84623  0.93755  1.0000
  C   C271      1.0  0.15641  0.41231  0.92476  1.0000
  C   C272      1.0  0.84364  0.11572  0.65015  1.0000
  C   C273      1.0  0.88335  0.72719  0.65742  1.0000
  C   C274      1.0  0.85840  0.09864  0.62384  1.0000
  C   C275      1.0  0.90030  0.75912  0.63128  1.0000
  C   C276      1.0  0.88562  0.10490  0.69368  1.0000
  C   C277      1.0  0.89591  0.78025  0.71037  1.0000
  C   C278      1.0  0.89804  0.12944  0.78851  1.0000
  C   C279      1.0  0.87373  0.76834  0.81590  1.0000
  C   C280      1.0  0.88344  0.14660  0.81372  1.0000
  C   C281      1.0  0.85644  0.73647  0.84004  1.0000
  C   C282      1.0  0.36561  0.10660  0.90192  1.0000
  C   C283      1.0  0.89072  0.25770  0.89883  1.0000
  C   C284      1.0  0.74259  0.63169  0.91266  1.0000
  C   C285      1.0  0.63520  0.89116  0.90319  1.0000
  C   C286      1.0  0.10961  0.74351  0.91205  1.0000
  C   C287      1.0  0.38120  0.08984  0.90943  1.0000
  C   C288      1.0  0.90732  0.29012  0.90643  1.0000
  C   C289      1.0  0.71019  0.61590  0.91927  1.0000
  C   C290      1.0  0.61982  0.90806  0.91456  1.0000
  C   C291      1.0  0.09287  0.71112  0.92146  1.0000
  C   C292      1.0  0.41291  0.10372  0.87444  1.0000
  C   C293      1.0  0.89457  0.30795  0.85731  1.0000
  C   C294      1.0  0.69236  0.58591  0.86331  1.0000
  C   C295      1.0  0.58874  0.89518  0.87242  1.0000
  C   C296      1.0  0.10610  0.69314  0.87986  1.0000
  C   C297      1.0  0.42860  0.13495  0.83091  1.0000
  C   C298      1.0  0.86458  0.29239  0.80067  1.0000
  C   C299      1.0  0.70784  0.57222  0.79867  1.0000
  C   C300      1.0  0.57330  0.86480  0.81896  1.0000
  C   C301      1.0  0.13686  0.70854  0.83041  1.0000
  C   C302      1.0  0.41287  0.15140  0.82125  1.0000
  C   C303      1.0  0.84826  0.26011  0.79175  1.0000
  C   C304      1.0  0.74011  0.58821  0.79028  1.0000
  C   C305      1.0  0.58882  0.84820  0.80598  1.0000
  C   C306      1.0  0.15335  0.74078  0.81969  1.0000
  C   C307      1.0  0.42818  0.08510  0.87543  1.0000
  C   C308      1.0  0.91335  0.34189  0.85948  1.0000
  C   C309      1.0  0.65846  0.57061  0.86625  1.0000
  C   C310      1.0  0.57390  0.91414  0.87630  1.0000
  C   C311      1.0  0.08711  0.65923  0.87945  1.0000
  C   C312      1.0  0.34196  0.42898  0.88917  1.0000
  C   C313      1.0  0.48473  0.02858  0.81518  1.0000
  C   C314      1.0  0.54531  0.51671  0.80995  1.0000
  C   C315      1.0  0.51473  0.99993  0.81327  1.0000
  C   C316      1.0  0.00062  0.51458  0.80164  1.0000
  C   C317      1.0  0.48631  0.48564  0.81235  1.0000
  C   C318      1.0  0.48716  0.99985  0.81274  1.0000
  C   C319      1.0  0.00077  0.48709  0.80289  1.0000
  C   C320      1.0  0.51383  0.51336  0.81051  1.0000
  C   C321      1.0  0.54565  0.02900  0.81154  1.0000
  C   C322      1.0  0.48371  0.45439  0.80912  1.0000
  C   C323      1.0  0.45575  0.97146  0.81040  1.0000
  C   C324      1.0  0.50039  0.05337  0.90689  1.0000
  C   C325      1.0  0.55416  0.49845  0.88654  1.0000
  C   C326      1.0  0.49262  0.07668  0.91990  1.0000
  C   C327      1.0  0.58510  0.50557  0.89263  1.0000
  C   C328      1.0  0.46833  0.07550  0.84232  1.0000
  C   C329      1.0  0.60853  0.53196  0.82474  1.0000
  C   C330      1.0  0.45445  0.05233  0.74201  1.0000
  C   C331      1.0  0.59964  0.54897  0.74013  1.0000
  C   C332      1.0  0.46253  0.02945  0.72978  1.0000
  C   C333      1.0  0.56877  0.54143  0.73358  1.0000
  C   C334      1.0  0.60909  0.07566  0.78840  1.0000
  C   C335      1.0  0.46699  0.39086  0.78401  1.0000
  C   C336      1.0  0.39213  0.92503  0.78439  1.0000
  C   C337      1.0  0.56774  0.03141  0.90669  1.0000
  C   C338      1.0  0.46267  0.43164  0.89996  1.0000
  C   C339      1.0  0.43272  0.97113  0.89524  1.0000
  C   C340      1.0  0.59874  0.05442  0.89728  1.0000
  C   C341      1.0  0.45468  0.40063  0.88949  1.0000
  C   C342      1.0  0.40169  0.94828  0.88454  1.0000
  C   C343      1.0  0.55560  0.05185  0.70990  1.0000
  C   C344      1.0  0.49767  0.44487  0.71034  1.0000
  C   C345      1.0  0.44635  0.94678  0.71792  1.0000
  C   C346      1.0  0.58690  0.07455  0.69684  1.0000
  C   C347      1.0  0.48915  0.41361  0.69620  1.0000
  C   C348      1.0  0.41507  0.92428  0.70280  1.0000
  N   N1        1.0  0.16557  0.07938  0.24623  1.0000
  N   N2        1.0  0.92224  0.08939  0.23308  1.0000
  N   N3        1.0  0.90979  0.83416  0.26121  1.0000
  N   N4        1.0  0.83228  0.91954  0.23962  1.0000
  N   N5        1.0  0.07862  0.91323  0.25480  1.0000
  N   N6        1.0  0.08761  0.16688  0.23195  1.0000
  N   N7        1.0  0.54206  0.90295  0.35612  1.0000
  N   N8        1.0  0.09841  0.64021  0.33418  1.0000
  N   N9        1.0  0.35924  0.45615  0.34938  1.0000
  N   N10       1.0  0.45549  0.09688  0.33542  1.0000
  N   N11       1.0  0.90090  0.35984  0.34238  1.0000
  N   N12       1.0  0.63943  0.54197  0.33458  1.0000
  N   N13       1.0  0.64030  0.09390  0.26383  1.0000
  N   N14       1.0  0.90484  0.54548  0.24819  1.0000
  N   N15       1.0  0.45471  0.35973  0.25905  1.0000
  N   N16       1.0  0.35928  0.90678  0.25804  1.0000
  N   N17       1.0  0.09260  0.45335  0.24997  1.0000
  N   N18       1.0  0.54585  0.64043  0.25363  1.0000
  N   N19       1.0  0.16700  0.07800  0.74698  1.0000
  N   N20       1.0  0.92318  0.08907  0.74037  1.0000
  N   N21       1.0  0.91336  0.83395  0.76187  1.0000
  N   N22       1.0  0.83470  0.92308  0.74822  1.0000
  N   N23       1.0  0.07776  0.91138  0.74806  1.0000
  N   N24       1.0  0.08882  0.16695  0.74356  1.0000
  N   N25       1.0  0.54447  0.90308  0.85631  1.0000
  N   N26       1.0  0.09806  0.64092  0.85459  1.0000
  N   N27       1.0  0.36043  0.45805  0.86071  1.0000
  N   N28       1.0  0.45794  0.09681  0.86251  1.0000
  N   N29       1.0  0.90256  0.36032  0.83469  1.0000
  N   N30       1.0  0.64014  0.54142  0.83911  1.0000
  N   N31       1.0  0.64104  0.09453  0.76292  1.0000
  N   N32       1.0  0.90595  0.54591  0.74626  1.0000
  N   N33       1.0  0.45437  0.35894  0.75837  1.0000
  N   N34       1.0  0.36033  0.90565  0.75786  1.0000
  N   N35       1.0  0.09332  0.45300  0.74773  1.0000
  N   N36       1.0  0.54685  0.63995  0.74954  1.0000
  C   C349      1.0  0.54145  0.57542  0.91041  1.0000
  C   C350      1.0  0.51970  0.54949  0.83728  1.0000
  C  Sn1       1.0  0.50452  0.55329  0.72647  1.0000
  C  Sn2       1.0  0.51129  0.58365  0.68839  1.0000
  C   C351      1.0  0.53310  0.60944  0.76214  1.0000
  C   C352      1.0  0.54815  0.60537  0.87288  1.0000
  H   H217      1.0  0.55311  0.57227  0.99605  1.0000
  O  Te1       1.0  0.48284  0.52713  0.65456  1.0000
  O  Te2       1.0  0.49647  0.58811  0.57803  1.0000
  H   H218      1.0  0.56500  0.62545  0.92942  1.0000
  Mg  Mg1       1.0  0.46872  0.54518  0.51180  1.0000
  C   C353      1.0  0.03553  0.46074  0.91048  1.0000
  C   C354      1.0  0.03101  0.48151  0.83165  1.0000
  C  Sn3       1.0  0.04911  0.49492  0.71589  1.0000
  C  Sn4       1.0  0.07214  0.48734  0.67858  1.0000
  C   C355      1.0  0.07647  0.46652  0.75807  1.0000
  C   C356      1.0  0.05823  0.45325  0.87373  1.0000
  H   H219      1.0  0.02141  0.45046  0.99994  1.0000
  O  Te3       1.0  0.04430  0.51564  0.63830  1.0000
  O  Te4       1.0  0.09055  0.50039  0.56335  1.0000
  H   H220      1.0  0.06172  0.43715  0.93470  1.0000
  Mg  Mg2       1.0  0.07523  0.52739  0.49028  1.0000
  C   C357      1.0  0.15073  0.90220  0.62985  1.0000
  C   C358      1.0  0.12230  0.89771  0.67843  1.0000
  C  Sn5       1.0  0.10508  0.87414  0.77238  1.0000
  C  Sn6       1.0  0.11660  0.85475  0.81838  1.0000
  C   C359      1.0  0.14508  0.85945  0.76924  1.0000
  C   C360      1.0  0.16212  0.88310  0.67521  1.0000
  H   H221      1.0  0.16393  0.92051  0.55716  1.0000
  O  Te5       1.0  0.07671  0.86996  0.81983  1.0000
  O  Te6       1.0  0.09987  0.83103  0.91227  1.0000
  H   H222      1.0  0.18415  0.88659  0.63769  1.0000
  Mg  Mg3       1.0  0.06242  0.83449  0.94708  1.0000
  C   C361      1.0  0.61424  0.72983  0.72129  1.0000
  C   C362      1.0  0.61363  0.75335  0.79690  1.0000
  C  Sn7       1.0  0.59223  0.74574  0.90258  1.0000
  C  Sn8       1.0  0.57108  0.71397  0.93292  1.0000
  C   C363      1.0  0.57189  0.69061  0.85674  1.0000
  C   C364      1.0  0.59340  0.69849  0.75118  1.0000
  H   H223      1.0  0.63090  0.73592  0.63967  1.0000
  O  Te7       1.0  0.59193  0.76953  0.97706  1.0000
  O  Te8       1.0  0.55037  0.70597  0.03802  1.0000
  H   H224      1.0  0.59388  0.68028  0.69272  1.0000
  Mg  Mg4       1.0  0.55902  0.74678  0.11051  1.0000
  C   C365      1.0  0.90604  0.94171  0.58977  1.0000
  C   C366      1.0  0.92859  0.96465  0.67306  1.0000
  C  Sn9       1.0  0.91985  0.97343  0.79236  1.0000
  C  Sn10      1.0  0.88791  0.95893  0.82871  1.0000
  C   C367      1.0  0.86553  0.93599  0.74475  1.0000
  C   C368      1.0  0.87453  0.92739  0.62558  1.0000
  H   H225      1.0  0.91300  0.93504  0.49760  1.0000
  O  Te9       1.0  0.94269  0.99640  0.87438  1.0000
  O  Te10      1.0  0.87853  0.96725  0.94740  1.0000
  H   H226      1.0  0.85706  0.90961  0.56116  1.0000
  Mg  Mg5       1.0  0.41824  0.00004  0.02597  1.0000
  C   C369      1.0  0.40720  0.95364  0.41228  1.0000
  C   C370      1.0  0.39284  0.93052  0.31379  1.0000
  C  Sn11      1.0  0.41067  0.92670  0.21404  1.0000
  C  Sn12      1.0  0.44349  0.94642  0.21317  1.0000
  C   C371      1.0  0.45764  0.96947  0.31221  1.0000
  C   C372      1.0  0.43957  0.97309  0.41153  1.0000
  H   H227      1.0  0.39323  0.95643  0.48918  1.0000
  O  Te11      1.0  0.39595  0.90349  0.11636  1.0000
  O  Te12      1.0  0.46187  0.94311  0.11468  1.0000
  H   H228      1.0  0.45070  0.99098  0.48783  1.0000
  Mg  Mg6       1.0  0.43100  0.90810  0.00301  1.0000
  C   C373      1.0  0.45014  0.04318  0.21387  1.0000
  C   C374      1.0  0.46119  0.06899  0.29954  1.0000
  C  Sn13      1.0  0.48486  0.07534  0.39199  1.0000
  C  Sn14      1.0  0.49767  0.05544  0.39853  1.0000
  C   C375      1.0  0.48647  0.02968  0.31233  1.0000
  C   C376      1.0  0.46276  0.02354  0.22023  1.0000
  H   H229      1.0  0.43181  0.03844  0.14256  1.0000
  O  Te13      1.0  0.49563  0.10122  0.47687  1.0000
  O  Te14      1.0  0.52136  0.06124  0.48995  1.0000
  H   H230      1.0  0.45423  0.00357  0.15385  1.0000
  Mg  Mg7       1.0  0.52824  0.09940  0.58453  1.0000
  C   C377      1.0  0.23757  0.10457  0.30961  1.0000
  C   C378      1.0  0.22121  0.11282  0.21989  1.0000
  C  Sn15      1.0  0.23724  0.13781  0.13078  1.0000
  C  Sn16      1.0  0.27026  0.15482  0.13171  1.0000
  C   C379      1.0  0.28642  0.14637  0.22180  1.0000
  C   C380      1.0  0.27014  0.12132  0.31057  1.0000
  H   H231      1.0  0.22498  0.08518  0.37825  1.0000
  O  Te15      1.0  0.22053  0.14575  0.04183  1.0000
  O  Te16      1.0  0.28687  0.17990  0.04370  1.0000
  H   H232      1.0  0.28282  0.11493  0.37996  1.0000
  Mg  Mg8       1.0  0.25272  0.18149  0.94132  1.0000
  C   C381      1.0  0.28634  0.42802  0.80347  1.0000
  C   C382      1.0  0.30480  0.41896  0.87440  1.0000
  C  Sn17      1.0  0.29141  0.38942  0.93365  1.0000
  C  Sn18      1.0  0.25892  0.36861  0.92146  1.0000
  C   C383      1.0  0.24065  0.37789  0.85021  1.0000
  C   C384      1.0  0.25430  0.40751  0.79135  1.0000
  H   H233      1.0  0.29690  0.45093  0.75786  1.0000
  O  Te17      1.0  0.31111  0.38101  0.00420  1.0000
  O  Te18      1.0  0.24493  0.33895  0.97964  1.0000
  H   H234      1.0  0.24000  0.41451  0.73637  1.0000
  Mg  Mg9       1.0  0.28122  0.33813  0.06577  1.0000
  C   C385      1.0  0.23863  0.10215  0.81486  1.0000
  C   C386      1.0  0.22285  0.11165  0.72783  1.0000
  C  Sn19      1.0  0.23944  0.13777  0.64500  1.0000
  C  Sn20      1.0  0.27245  0.15462  0.64956  1.0000
  C   C387      1.0  0.28802  0.14491  0.73690  1.0000
  C   C388      1.0  0.27119  0.11875  0.81939  1.0000
  H   H235      1.0  0.22561  0.08190  0.87863  1.0000
  O  Te19      1.0  0.22330  0.14695  0.55867  1.0000
  O  Te20      1.0  0.28961  0.18080  0.56783  1.0000
  H   H236      1.0  0.28342  0.11138  0.88669  1.0000
  Mg  Mg10      1.0  0.25704  0.18416  0.46691  1.0000
  C   C389      1.0  0.15287  0.88764  0.11626  1.0000
  C   C390      1.0  0.14900  0.86789  0.22453  1.0000
  C  Sn21      1.0  0.12558  0.86054  0.32056  1.0000
  C  Sn22      1.0  0.10569  0.87323  0.30766  1.0000
  C   C391      1.0  0.10973  0.89295  0.19892  1.0000
  C   C392      1.0  0.13325  0.90016  0.10343  1.0000
  H   H237      1.0  0.17105  0.89321  0.04233  1.0000
  O  Te21      1.0  0.12206  0.84077  0.42813  1.0000
  O  Te22      1.0  0.08209  0.86625  0.40216  1.0000
  H   H238      1.0  0.13622  0.91544  0.01956  1.0000
  Mg  Mg11      1.0  0.08652  0.83818  0.53104  1.0000
  C   C393      1.0  0.96177  0.88789  0.62375  1.0000
  C   C394      1.0  0.93843  0.86928  0.71641  1.0000
  C  Sn23      1.0  0.92655  0.88266  0.80555  1.0000
  C  Sn24      1.0  0.93829  0.91529  0.80157  1.0000
  C   C395      1.0  0.96161  0.93370  0.70842  1.0000
  C   C396      1.0  0.97335  0.92007  0.61972  1.0000
  H   H239      1.0  0.97083  0.87734  0.55506  1.0000
  O  Te23      1.0  0.90325  0.86373  0.89752  1.0000
  O  Te24      1.0  0.92682  0.92927  0.88947  1.0000
  H   H240      1.0  0.99140  0.93448  0.54792  1.0000
  Mg  Mg12      1.0  0.89510  0.89366  0.99666  1.0000
  C   C397      1.0  0.38745  0.26912  0.73285  1.0000
  C   C398      1.0  0.38791  0.24561  0.80895  1.0000
  C  Sn25      1.0  0.40910  0.25324  0.91475  1.0000
  C  Sn26      1.0  0.43020  0.28502  0.94471  1.0000
  C   C399      1.0  0.42954  0.30836  0.86804  1.0000
  C   C400      1.0  0.40824  0.30046  0.76237  1.0000
  H   H241      1.0  0.37096  0.26301  0.65114  1.0000
  O  Te25      1.0  0.40925  0.22947  0.98974  1.0000
  O  Te26      1.0  0.45254  0.29356  0.04993  1.0000
  H   H242      1.0  0.40788  0.31867  0.70352  1.0000
  Mg  Mg13      1.0  0.44373  0.25276  0.12314  1.0000
  C   C401      1.0  0.72987  0.11598  0.73137  1.0000
  C   C402      1.0  0.75377  0.13991  0.80606  1.0000
  C  Sn27      1.0  0.74674  0.15370  0.91356  1.0000
  C  Sn28      1.0  0.71519  0.14327  0.94669  1.0000
  C   C403      1.0  0.69145  0.11930  0.87141  1.0000
  C   C404      1.0  0.69875  0.10568  0.76401  1.0000
  H   H243      1.0  0.73551  0.10543  0.64832  1.0000
  O  Te27      1.0  0.77089  0.17758  0.98710  1.0000
  O  Te28      1.0  0.70842  0.15689  0.05367  1.0000
  H   H244      1.0  0.68025  0.08714  0.70626  1.0000
  Mg  Mg14      1.0  0.74956  0.18874  0.12388  1.0000
  C   C405      1.0  0.59216  0.04490  0.40981  1.0000
  C   C406      1.0  0.60661  0.06915  0.31592  1.0000
  C  Sn29      1.0  0.58884  0.07430  0.22121  1.0000
  C  Sn30      1.0  0.55600  0.05477  0.22077  1.0000
  C   C407      1.0  0.54176  0.03058  0.31519  1.0000
  C   C408      1.0  0.55976  0.02563  0.40948  1.0000
  H   H245      1.0  0.60608  0.04108  0.48283  1.0000
  O  Te29      1.0  0.60365  0.09862  0.12808  1.0000
  O  Te30      1.0  0.53768  0.05939  0.12726  1.0000
  H   H246      1.0  0.54857  0.00687  0.48222  1.0000
  Mg  Mg15      1.0  0.56866  0.09561  0.02063  1.0000
  C   C409      1.0  0.14957  0.73195  0.25736  1.0000
  C   C410      1.0  0.14102  0.75356  0.29909  1.0000
  C  Sn31      1.0  0.11391  0.74386  0.37519  1.0000
  C  Sn32      1.0  0.09507  0.71193  0.41002  1.0000
  C   C411      1.0  0.10384  0.69051  0.36785  1.0000
  C   C412      1.0  0.13101  0.70046  0.29171  1.0000
  H   H247      1.0  0.17060  0.73965  0.19850  1.0000
  O  Te31      1.0  0.10570  0.76575  0.41602  1.0000
  O  Te32      1.0  0.06786  0.70161  0.48602  1.0000
  H   H248      1.0  0.13764  0.68373  0.25948  1.0000
  Mg  Mg16      1.0  0.06647  0.74032  0.51799  1.0000
  C   C413      1.0  0.03074  0.09391  0.09839  1.0000
  C   C414      1.0  0.03396  0.07234  0.17732  1.0000
  C  Sn33      1.0  0.05512  0.08246  0.28432  1.0000
  C  Sn34      1.0  0.07335  0.11479  0.31261  1.0000
  C   C415      1.0  0.06993  0.13619  0.23311  1.0000
  C   C416      1.0  0.04870  0.12581  0.12625  1.0000
  H   H249      1.0  0.01430  0.08589  0.01575  1.0000
  O  Te33      1.0  0.05806  0.06059  0.36214  1.0000
  O  Te34      1.0  0.09466  0.12554  0.41898  1.0000
  H   H250      1.0  0.04619  0.14251  0.06521  1.0000
  Mg  Mg17      1.0  0.09027  0.08670  0.49615  1.0000
  C   C417      1.0  0.40648  0.45039  0.73195  1.0000
  C   C418      1.0  0.39331  0.46253  0.82101  1.0000
  C  Sn35      1.0  0.41223  0.48694  0.90809  1.0000
  C  Sn36      1.0  0.44494  0.49940  0.90573  1.0000
  C   C419      1.0  0.45789  0.48711  0.81619  1.0000
  C   C420      1.0  0.43874  0.46267  0.72952  1.0000
  H   H251      1.0  0.39167  0.43150  0.66483  1.0000
  O  Te35      1.0  0.39869  0.49878  0.99646  1.0000
  O  Te36      1.0  0.46440  0.52381  0.99164  1.0000
  H   H252      1.0  0.44894  0.45330  0.66052  1.0000
  Mg  Mg18      1.0  0.43585  0.53234  0.09401  1.0000
  C   C421      1.0  0.11534  0.38662  0.21157  1.0000
  C   C422      1.0  0.13954  0.38711  0.28528  1.0000
  C  Sn37      1.0  0.15293  0.40773  0.39350  1.0000
  C  Sn38      1.0  0.14183  0.42820  0.42836  1.0000
  C   C423      1.0  0.11759  0.42751  0.35406  1.0000
  C   C424      1.0  0.10437  0.40680  0.24592  1.0000
  H   H253      1.0  0.10510  0.37058  0.12795  1.0000
  O  Te37      1.0  0.17710  0.40792  0.46604  1.0000
  O  Te38      1.0  0.15478  0.44903  0.53609  1.0000
  H   H254      1.0  0.08562  0.40641  0.18893  1.0000
  Mg  Mg19      1.0  0.18723  0.44054  0.60441  1.0000
  C   C425      1.0  0.86408  0.76086  0.32109  1.0000
  C   C426      1.0  0.89129  0.77848  0.24569  1.0000
  C  Sn39      1.0  0.90301  0.76370  0.16391  1.0000
  C  Sn40      1.0  0.88715  0.73067  0.15768  1.0000
  C   C427      1.0  0.85993  0.71325  0.23343  1.0000
  C   C428      1.0  0.84841  0.72828  0.31497  1.0000
  H   H255      1.0  0.85516  0.77248  0.38413  1.0000
  O  Te39      1.0  0.93023  0.78165  0.08927  1.0000
  O  Te40      1.0  0.89834  0.71530  0.07673  1.0000
  H   H256      1.0  0.82733  0.71463  0.37327  1.0000
  Mg  Mg20      1.0  0.93540  0.74969  0.99381  1.0000
  C   C429      1.0  0.95236  0.54446  0.90227  1.0000
  C   C430      1.0  0.93040  0.53685  0.79975  1.0000
  C  Sn41      1.0  0.92807  0.51678  0.69529  1.0000
  C  Sn42      1.0  0.94813  0.50413  0.69375  1.0000
  C   C431      1.0  0.97001  0.51187  0.79684  1.0000
  C   C432      1.0  0.97215  0.53198  0.90086  1.0000
  H   H257      1.0  0.95401  0.56000  0.98280  1.0000
  O  Te41      1.0  0.90601  0.50943  0.59362  1.0000
  O  Te42      1.0  0.94629  0.48401  0.59058  1.0000
  H   H258      1.0  0.98914  0.53785  0.98027  1.0000
  Mg  Mg21      1.0  0.91245  0.48097  0.47463  1.0000
  C   C433      1.0  0.60060  0.71251  0.22133  1.0000
  C   C434      1.0  0.57822  0.69527  0.31983  1.0000
  C  Sn43      1.0  0.57131  0.71046  0.42166  1.0000
  C  Sn44      1.0  0.58714  0.74352  0.42465  1.0000
  C   C435      1.0  0.60948  0.76054  0.32559  1.0000
  C   C436      1.0  0.61621  0.74511  0.22417  1.0000
  H   H259      1.0  0.60580  0.70057  0.14282  1.0000
  O  Te43      1.0  0.54889  0.69289  0.51932  1.0000
  O  Te44      1.0  0.58068  0.75929  0.52525  1.0000
  H   H260      1.0  0.63353  0.75846  0.14787  1.0000
  Mg  Mg22      1.0  0.54823  0.72506  0.63599  1.0000
  C   C437      1.0  0.06569  0.09068  0.81821  1.0000
  C   C438      1.0  0.04121  0.07154  0.73201  1.0000
  C  Sn45      1.0  0.03182  0.08464  0.63058  1.0000
  C  Sn46      1.0  0.04728  0.11751  0.61541  1.0000
  C   C439      1.0  0.07176  0.13645  0.70210  1.0000
  C   C440      1.0  0.08096  0.12310  0.80327  1.0000
  H   H261      1.0  0.07282  0.08035  0.89644  1.0000
  O  Te45      1.0  0.00731  0.06518  0.54537  1.0000
  O  Te46      1.0  0.03837  0.13121  0.51486  1.0000
  H   H262      1.0  0.09993  0.13792  0.86994  1.0000
  Mg  Mg23      1.0  0.00368  0.09490  0.42361  1.0000
  C   C441      1.0  0.02972  0.45434  0.39644  1.0000
  C   C442      1.0  0.02750  0.47817  0.33143  1.0000
  C  Sn47      1.0  0.04922  0.49631  0.23227  1.0000
  C  Sn48      1.0  0.07356  0.49044  0.19774  1.0000
  C   C443      1.0  0.07556  0.46653  0.26329  1.0000
  C   C444      1.0  0.05371  0.44852  0.36240  1.0000
  H   H263      1.0  0.01281  0.44039  0.47307  1.0000
  O  Te47      1.0  0.04667  0.52003  0.16836  1.0000
  O  Te48      1.0  0.09557  0.50821  0.09897  1.0000
  H   H264      1.0  0.05542  0.43006  0.41265  1.0000
  Mg  Mg24      1.0  0.08229  0.53792  0.04040  1.0000
  C   C445      1.0  0.43902  0.50048  0.41505  1.0000
  C   C446      1.0  0.45252  0.48676  0.33749  1.0000
  C  Sn49      1.0  0.43443  0.46276  0.24712  1.0000
  C  Sn50      1.0  0.40223  0.45237  0.23435  1.0000
  C   C447      1.0  0.38895  0.46626  0.31232  1.0000
  C   C448      1.0  0.40726  0.49025  0.40248  1.0000
  H   H265      1.0  0.45319  0.51906  0.48475  1.0000
  O  Te49      1.0  0.44830  0.44930  0.17044  1.0000
  O  Te50      1.0  0.38361  0.42843  0.14476  1.0000
  H   H266      1.0  0.39680  0.50088  0.46245  1.0000
  Mg  Mg25      1.0  0.41323  0.41742  0.06229  1.0000
  C   C449      1.0  0.96550  0.42420  0.20475  1.0000
  C   C450      1.0  0.96920  0.45002  0.27746  1.0000
  C  Sn51      1.0  0.94862  0.44619  0.38237  1.0000
  C  Sn52      1.0  0.92390  0.41591  0.41489  1.0000
  C   C451      1.0  0.92041  0.39022  0.34161  1.0000
  C   C452      1.0  0.94113  0.39432  0.23680  1.0000
  H   H267      1.0  0.98154  0.42737  0.12370  1.0000
  O  Te51      1.0  0.95265  0.47224  0.45395  1.0000
  O  Te52      1.0  0.90301  0.41141  0.51929  1.0000
  H   H268      1.0  0.93827  0.37432  0.18058  1.0000
  Mg  Mg26      1.0  0.91815  0.45419  0.58751  1.0000
  C   C453      1.0  0.54781  0.59296  0.39908  1.0000
  C   C454      1.0  0.53746  0.60693  0.30595  1.0000
  C  Sn53      1.0  0.51423  0.58868  0.21301  1.0000
  C  Sn54      1.0  0.50117  0.55584  0.21358  1.0000
  C   C455      1.0  0.51167  0.54209  0.30722  1.0000
  C   C456      1.0  0.53493  0.56057  0.39974  1.0000
  H   H269      1.0  0.56580  0.60726  0.47072  1.0000
  O  Te53      1.0  0.50417  0.60302  0.12063  1.0000
  O  Te54      1.0  0.47791  0.53705  0.12184  1.0000
  H   H270      1.0  0.54292  0.54975  0.47189  1.0000
  Mg  Mg27      1.0  0.47194  0.56747  0.01563  1.0000
  C   C457      1.0  0.10397  0.25012  0.60749  1.0000
  C   C458      1.0  0.10645  0.22576  0.66539  1.0000
  C  Sn55      1.0  0.12632  0.23144  0.77486  1.0000
  C  Sn56      1.0  0.14402  0.26211  0.82713  1.0000
  C   C459      1.0  0.14136  0.28632  0.76855  1.0000
  C   C460      1.0  0.12141  0.28037  0.65902  1.0000
  H   H271      1.0  0.08852  0.24552  0.52279  1.0000
  O  Te55      1.0  0.12853  0.20684  0.83147  1.0000
  O  Te56      1.0  0.16405  0.26845  0.93649  1.0000
  H   H272      1.0  0.11948  0.29924  0.61427  1.0000
  Mg  Mg28      1.0  0.15905  0.22717  0.97914  1.0000
  C   C461      1.0  0.89606  0.13516  0.29850  1.0000
  C   C462      1.0  0.88710  0.10962  0.21291  1.0000
  C  Sn57      1.0  0.86127  0.09956  0.12867  1.0000
  C  Sn58      1.0  0.84415  0.11541  0.13037  1.0000
  C   C463      1.0  0.85331  0.14096  0.21629  1.0000
  C   C464      1.0  0.87918  0.15082  0.30019  1.0000
  H   H273      1.0  0.91609  0.14280  0.36337  1.0000
  O  Te57      1.0  0.85264  0.07399  0.04381  1.0000
  O  Te58      1.0  0.81825  0.10586  0.04719  1.0000
  H   H274      1.0  0.88612  0.17061  0.36639  1.0000
  Mg  Mg29      1.0  0.81472  0.06952  0.94917  1.0000
  C   C465      1.0  0.42655  0.27868  0.45356  1.0000
  C   C466      1.0  0.42979  0.30256  0.36797  1.0000
  C  Sn59      1.0  0.40980  0.29583  0.25805  1.0000
  C  Sn60      1.0  0.38614  0.26460  0.23363  1.0000
  C   C467      1.0  0.38308  0.24088  0.31990  1.0000
  C   C468      1.0  0.40322  0.24787  0.42958  1.0000
  H   H275      1.0  0.44212  0.28408  0.53846  1.0000
  O  Te59      1.0  0.41336  0.31996  0.17352  1.0000
  O  Te60      1.0  0.36583  0.25722  0.12454  1.0000
  H   H276      1.0  0.40069  0.22938  0.49587  1.0000
  Mg  Mg30      1.0  0.38000  0.29820  0.03798  1.0000
  C   C469      1.0  0.45717  0.42393  0.40956  1.0000
  C   C470      1.0  0.47953  0.44986  0.33776  1.0000
  C  Sn61      1.0  0.49618  0.44614  0.23218  1.0000
  C  Sn62      1.0  0.49028  0.41585  0.19806  1.0000
  C   C471      1.0  0.46785  0.39005  0.27045  1.0000
  C   C472      1.0  0.45133  0.39405  0.37594  1.0000
  H   H277      1.0  0.44437  0.42701  0.49114  1.0000
  O  Te61      1.0  0.51844  0.47230  0.16152  1.0000
  O  Te62      1.0  0.50658  0.41146  0.09296  1.0000
  H   H278      1.0  0.43401  0.37396  0.43146  1.0000
  Mg  Mg31      1.0  0.53463  0.45437  0.02648  1.0000
  C   C473      1.0  0.03093  0.57838  0.72327  1.0000
  C   C474      1.0  0.02927  0.55165  0.77842  1.0000
  C  Sn63      1.0  0.05217  0.55421  0.86775  1.0000
  C  Sn64      1.0  0.07717  0.58412  0.90235  1.0000
  C   C475      1.0  0.07861  0.61072  0.84671  1.0000
  C   C476      1.0  0.05557  0.60789  0.75739  1.0000
  H   H279      1.0  0.01309  0.57620  0.65421  1.0000
  O  Te63      1.0  0.05017  0.52726  0.92189  1.0000
  O  Te64      1.0  0.10038  0.58735  0.99143  1.0000
  H   H280      1.0  0.05685  0.62860  0.71477  1.0000
  Mg  Mg32      1.0  0.08835  0.54396  0.03875  1.0000
  C   C477      1.0  0.92513  0.42346  0.90101  1.0000
  C   C478      1.0  0.92199  0.39776  0.82909  1.0000
  C  Sn65      1.0  0.94571  0.40098  0.74231  1.0000
  C  Sn66      1.0  0.97306  0.43049  0.72749  1.0000
  C   C479      1.0  0.97599  0.45605  0.79997  1.0000
  C   C480      1.0  0.95211  0.45258  0.88649  1.0000
  H   H281      1.0  0.90666  0.42077  0.96801  1.0000
  O  Te65      1.0  0.94218  0.37506  0.67118  1.0000
  O  Te66      1.0  0.99713  0.43436  0.64149  1.0000
  H   H282      1.0  0.95456  0.47248  0.94223  1.0000
  Mg  Mg33      1.0  0.98144  0.39207  0.56620  1.0000
  C   C481      1.0  0.74522  0.88873  0.82624  1.0000
  C   C482      1.0  0.72102  0.86325  0.75978  1.0000
  C  Sn67      1.0  0.72760  0.84702  0.66178  1.0000
  C  Sn68      1.0  0.75902  0.85652  0.62997  1.0000
  C   C483      1.0  0.78306  0.88203  0.69710  1.0000
  C   C484      1.0  0.77621  0.89811  0.79496  1.0000
  H   H283      1.0  0.73993  0.90116  0.90201  1.0000
  O  Te67      1.0  0.70315  0.82162  0.59631  1.0000
  O  Te68      1.0  0.76625  0.84071  0.53248  1.0000
  H   H284      1.0  0.79495  0.91782  0.84647  1.0000
  Mg  Mg34      1.0  0.72483  0.80754  0.47093  1.0000
  C   C485      1.0  0.49891  0.93957  0.42647  1.0000
  C   C486      1.0  0.51183  0.96589  0.34300  1.0000
  C  Sn69      1.0  0.53438  0.97037  0.24666  1.0000
  C  Sn70      1.0  0.54413  0.94805  0.23386  1.0000
  C   C487      1.0  0.53105  0.92179  0.31779  1.0000
  C   C488      1.0  0.50851  0.91754  0.41388  1.0000
  H   H285      1.0  0.48145  0.93627  0.50077  1.0000
  O  Te69      1.0  0.54705  0.99680  0.16411  1.0000
  O  Te70      1.0  0.56663  0.95195  0.13839  1.0000
  H   H286      1.0  0.49850  0.89715  0.47844  1.0000
  Mg  Mg35      1.0  0.57701  0.99177  0.04919  1.0000
  C   C489      1.0  0.55222  0.95747  0.73248  1.0000
  C   C490      1.0  0.53973  0.93134  0.81704  1.0000
  C  Sn71      1.0  0.51440  0.92454  0.90112  1.0000
  C  Sn72      1.0  0.50139  0.94430  0.90027  1.0000
  C   C491      1.0  0.51404  0.97036  0.81523  1.0000
  C   C492      1.0  0.53939  0.97696  0.73154  1.0000
  H   H287      1.0  0.57182  0.96256  0.66766  1.0000
  O  Te71      1.0  0.50222  0.89835  0.98502  1.0000
  O  Te72      1.0  0.47607  0.93804  0.98325  1.0000
  H   H288      1.0  0.54904  0.99718  0.66601  1.0000
  Mg  Mg36      1.0  0.46856  0.89986  0.07985  1.0000
