data_image0
_chemical_formula_structural       H72C124N32O4C2Sn2C2HTe2HMgC2Sn2C2HTe2HMgC2Sn2C2HTe2HMgC2Sn2C2HTe2HMgC2Sn2C2HTe2HMgC2Sn2C2HTe2HMgC2Sn2C2HTe2HMgC2Sn2C2HTe2HMgC2Sn2C2HTe2HMgC2Sn2C2HTe2HMgC2Sn2C2HTe2HMgC2Sn2C2HTe2HMgC2Sn2C2HTe2HMgC2Sn2C2HTe2HMgC2Sn2C2HTe2HMgC2Sn2C2HTe2HMgC2Sn2C2HTe2HMgC2Sn2C2HTe2HMgC2Sn2C2HTe2HMgC2Sn2C2HTe2HMgC2Sn2C2HTe2HMgC2Sn2C2HTe2HMgC2Sn2C2HTe2HMgC2Sn2C2HTe2HMgC2Sn2C2HTe2HMgC2Sn2C2HTe2HMgC2Sn2C2HTe2HMgC2Sn2C2HTe2HMgC2Sn2C2HTe2HMgC2Sn2C2HTe2HMgC2Sn2C2HTe2HMgC2Sn2C2HTe2HMgC2Sn2C2HTe2HMgC2Sn2C2HTe2HMgC2Sn2C2HTe2HMgC2Sn2C2HTe2HMgC2Sn2C2HTe2HMgC2Sn2C2HTe2HMgC2Sn2C2HTe2HMgC2Sn2C2HTe2HMgC2Sn2C2HTe2HMgC2Sn2C2HTe2HMgC2Sn2C2HTe2HMgC2Sn2C2HTe2HMgC2Sn2C2HTe2HMgC2Sn2C2HTe2HMgC2Sn2C2HTe2HMgC2Sn2C2HTe2HMgC2Sn2C2HTe2HMgC2Sn2C2HTe2HMgC2Sn2C2HTe2HMgC2Sn2C2HTe2HMgC2Sn2C2HTe2HMgC2Sn2C2HTe2HMgC2Sn2C2HTe2HMgC2Sn2C2HTe2HMgC2Sn2C2HTe2HMgC2Sn2C2HTe2HMgC2Sn2C2HTe2HMgC2Sn2C2HTe2HMgC2Sn2C2HTe2HMgC2Sn2C2HTe2HMgC2Sn2C2HTe2HMgC2Sn2C2HTe2HMgC2Sn2C2HTe2HMgC2Sn2C2HTe2HMgC2Sn2C2HTe2HMgC2Sn2C2HTe2HMg
_chemical_formula_sum              "H208 C396 N32 O4 Sn136 Te136 Mg68"
_cell_length_a       49.4025
_cell_length_b       49.4984
_cell_length_c       9.13589
_cell_angle_alpha    98.1492
_cell_angle_beta     96.6137
_cell_angle_gamma    55.1116

_symmetry_space_group_name_H-M    'P1'
_space_group_IT_number       1

loop_
  _space_group_symop_operation_xyz
  'x, y, z'

loop_
  _atom_site_type_symbol
  _atom_site_label
  _atom_site_symmetry_multiplicity
  _atom_site_fract_x
  _atom_site_fract_y
  _atom_site_fract_z
  _atom_site_occupancy
  H   H1        1.0  0.90068  0.30824  0.24666  1.0000
  H   H2        1.0  0.09559  0.67466  0.30662  1.0000
  H   H3        1.0  0.82093  0.29702  0.26227  1.0000
  H   H4        1.0  0.17651  0.68403  0.29076  1.0000
  H   H5        1.0  0.80009  0.39198  0.20542  1.0000
  H   H6        1.0  0.19469  0.58769  0.26052  1.0000
  H   H7        1.0  0.87397  0.45961  0.07289  1.0000
  H   H8        1.0  0.11140  0.52154  0.14043  1.0000
  H   H9        1.0  0.96905  0.14899  0.39679  1.0000
  H   H10       1.0  0.03543  0.84093  0.39601  1.0000
  H   H11       1.0  0.65601  0.39692  0.17888  1.0000
  H   H12       1.0  0.33411  0.58844  0.14675  1.0000
  H   H13       1.0  0.32090  0.80990  0.20329  1.0000
  H   H14       1.0  0.69036  0.17911  0.15839  1.0000
  H   H15       1.0  0.31829  0.89696  0.16883  1.0000
  H   H16       1.0  0.69349  0.08948  0.11963  1.0000
  H   H17       1.0  0.40982  0.80066  0.12329  1.0000
  H   H18       1.0  0.60084  0.18321  0.07944  1.0000
  H   H19       1.0  0.45085  0.64659  0.03816  1.0000
  H   H20       1.0  0.54591  0.33618  0.01063  1.0000
  H   H21       1.0  0.17364  0.91910  0.40846  1.0000
  H   H22       1.0  0.84476  0.07776  0.28879  1.0000
  H   H23       1.0  0.42245  0.93613  0.09302  1.0000
  H   H24       1.0  0.57998  0.05568  0.05333  1.0000
  H   H25       1.0  0.81858  0.89019  0.18910  1.0000
  H   H26       1.0  0.20882  0.08613  0.20475  1.0000
  H   H27       1.0  0.91208  0.79719  0.24423  1.0000
  H   H28       1.0  0.11319  0.17702  0.27931  1.0000
  H   H29       1.0  0.82580  0.79913  0.08354  1.0000
  H   H30       1.0  0.19152  0.17890  0.13377  1.0000
  H   H31       1.0  0.66937  0.89968  0.93555  1.0000
  H   H32       1.0  0.34415  0.08325  0.95877  1.0000
  H   H33       1.0  0.90956  0.94083  0.50170  1.0000
  H   H34       1.0  0.12179  0.04219  0.49239  1.0000
  H   H35       1.0  0.95325  0.63823  0.14012  1.0000
  H   H36       1.0  0.04602  0.33631  0.20832  1.0000
  H   H37       1.0  0.90978  0.32669  0.80053  1.0000
  H   H38       1.0  0.10692  0.69345  0.76432  1.0000
  H   H39       1.0  0.82706  0.31886  0.77689  1.0000
  H   H40       1.0  0.18586  0.70411  0.70953  1.0000
  H   H41       1.0  0.81194  0.41011  0.69738  1.0000
  H   H42       1.0  0.20562  0.60756  0.70298  1.0000
  H   H43       1.0  0.90564  0.45776  0.55756  1.0000
  H   H44       1.0  0.11756  0.54589  0.60532  1.0000
  H   H45       1.0  0.96289  0.16952  0.95864  1.0000
  H   H46       1.0  0.03354  0.85770  0.84868  1.0000
  H   H47       1.0  0.66790  0.40996  0.62633  1.0000
  H   H48       1.0  0.34702  0.59811  0.57874  1.0000
  H   H49       1.0  0.30838  0.81958  0.70246  1.0000
  H   H50       1.0  0.67840  0.19646  0.70397  1.0000
  H   H51       1.0  0.30353  0.90890  0.68085  1.0000
  H   H52       1.0  0.68010  0.10847  0.69882  1.0000
  H   H53       1.0  0.39639  0.81479  0.65467  1.0000
  H   H54       1.0  0.58848  0.20120  0.61814  1.0000
  H   H55       1.0  0.45774  0.65920  0.55550  1.0000
  H   H56       1.0  0.54047  0.35240  0.51389  1.0000
  H   H57       1.0  0.15284  0.92323  0.75932  1.0000
  H   H58       1.0  0.83139  0.08900  0.91320  1.0000
  H   H59       1.0  0.40867  0.94045  0.51163  1.0000
  H   H60       1.0  0.57192  0.06922  0.58174  1.0000
  H   H61       1.0  0.78932  0.90064  0.68730  1.0000
  H   H62       1.0  0.18057  0.11065  0.64354  1.0000
  H   H63       1.0  0.88431  0.80799  0.69959  1.0000
  H   H64       1.0  0.08594  0.20178  0.73137  1.0000
  H   H65       1.0  0.79791  0.80929  0.55224  1.0000
  H   H66       1.0  0.16571  0.20404  0.60933  1.0000
  H   H67       1.0  0.64210  0.90135  0.47312  1.0000
  H   H68       1.0  0.31801  0.11842  0.47625  1.0000
  H   H69       1.0  0.89331  0.93621  0.04800  1.0000
  H   H70       1.0  0.10183  0.06585  0.97913  1.0000
  H   H71       1.0  0.94516  0.65076  0.62850  1.0000
  H   H72       1.0  0.04793  0.36332  0.69699  1.0000
  C   C1        1.0  0.88109  0.44844  0.17849  1.0000
  C   C2        1.0  0.10510  0.53752  0.24516  1.0000
  C   C3        1.0  0.94977  0.15735  0.30733  1.0000
  C   C4        1.0  0.05262  0.82648  0.30588  1.0000
  C   C5        1.0  0.85156  0.35276  0.22446  1.0000
  C   C6        1.0  0.14389  0.62860  0.28632  1.0000
  C   C7        1.0  0.87431  0.31904  0.24484  1.0000
  C   C8        1.0  0.12197  0.66331  0.30155  1.0000
  C   C9        1.0  0.86347  0.29851  0.25346  1.0000
  C   C10       1.0  0.13342  0.68357  0.29973  1.0000
  C   C11       1.0  0.82928  0.31266  0.24972  1.0000
  C   C12       1.0  0.16745  0.66843  0.28695  1.0000
  C   C13       1.0  0.80606  0.34659  0.23610  1.0000
  C   C14       1.0  0.18992  0.63392  0.27223  1.0000
  C   C15       1.0  0.81777  0.36593  0.22085  1.0000
  C   C16       1.0  0.17766  0.61447  0.27315  1.0000
  C   C17       1.0  0.66465  0.41331  0.20317  1.0000
  C   C18       1.0  0.32765  0.57148  0.16820  1.0000
  C   C19       1.0  0.48136  0.50898  0.18894  1.0000
  C   C20       1.0  0.51156  0.47927  0.19378  1.0000
  C   C21       1.0  0.44121  0.65876  0.14787  1.0000
  C   C22       1.0  0.55581  0.32731  0.12089  1.0000
  C   C23       1.0  0.17699  0.92654  0.30767  1.0000
  C   C24       1.0  0.83824  0.06151  0.22495  1.0000
  C   C25       1.0  0.36784  0.80099  0.16574  1.0000
  C   C26       1.0  0.64330  0.18542  0.11798  1.0000
  C   C27       1.0  0.33379  0.82118  0.18868  1.0000
  C   C28       1.0  0.67775  0.16664  0.14158  1.0000
  C   C29       1.0  0.31556  0.85578  0.18800  1.0000
  C   C30       1.0  0.69639  0.13185  0.13847  1.0000
  C   C31       1.0  0.33213  0.87015  0.16396  1.0000
  C   C32       1.0  0.67967  0.11610  0.11482  1.0000
  C   C33       1.0  0.36637  0.85065  0.14209  1.0000
  C   C34       1.0  0.64513  0.13460  0.09664  1.0000
  C   C35       1.0  0.38350  0.81620  0.14166  1.0000
  C   C36       1.0  0.62757  0.16891  0.09512  1.0000
  C   C37       1.0  0.43820  0.90899  0.09192  1.0000
  C   C38       1.0  0.56637  0.08255  0.08390  1.0000
  C   C39       1.0  0.52361  0.99427  0.15903  1.0000
  C   C40       1.0  0.49848  0.98989  0.14941  1.0000
  C   C41       1.0  0.68083  0.89547  0.04822  1.0000
  C   C42       1.0  0.33794  0.08536  0.07351  1.0000
  C   C43       1.0  0.92615  0.91709  0.43490  1.0000
  C   C44       1.0  0.10407  0.06386  0.42919  1.0000
  C   C45       1.0  0.81799  0.84670  0.13291  1.0000
  C   C46       1.0  0.20416  0.13059  0.16456  1.0000
  C   C47       1.0  0.83312  0.86332  0.18197  1.0000
  C   C48       1.0  0.19225  0.11289  0.20451  1.0000
  C   C49       1.0  0.86728  0.84563  0.21711  1.0000
  C   C50       1.0  0.15899  0.12924  0.24025  1.0000
  C   C51       1.0  0.88611  0.81081  0.20819  1.0000
  C   C52       1.0  0.13813  0.16389  0.24096  1.0000
  C   C53       1.0  0.87108  0.79382  0.16352  1.0000
  C   C54       1.0  0.14966  0.18210  0.20445  1.0000
  C   C55       1.0  0.83746  0.81215  0.12111  1.0000
  C   C56       1.0  0.18235  0.16500  0.16271  1.0000
  C   C57       1.0  0.92676  0.65518  0.16149  1.0000
  C   C58       1.0  0.07205  0.32435  0.24693  1.0000
  C   C59       1.0  0.99113  0.48126  0.26495  1.0000
  C   C60       1.0  0.99612  0.50554  0.25773  1.0000
  C   C61       1.0  0.02282  0.97235  0.23505  1.0000
  C   C62       1.0  0.99175  0.00157  0.23292  1.0000
  C   C63       1.0  0.90644  0.45335  0.67307  1.0000
  C   C64       1.0  0.12022  0.55462  0.72040  1.0000
  C   C65       1.0  0.94909  0.17848  0.85336  1.0000
  C   C66       1.0  0.05383  0.84634  0.77242  1.0000
  C   C67       1.0  0.86217  0.37097  0.74917  1.0000
  C   C68       1.0  0.15526  0.64792  0.73799  1.0000
  C   C69       1.0  0.88332  0.33804  0.78485  1.0000
  C   C70       1.0  0.13294  0.68252  0.75045  1.0000
  C   C71       1.0  0.87091  0.31877  0.79008  1.0000
  C   C72       1.0  0.14343  0.70322  0.73659  1.0000
  C   C73       1.0  0.83680  0.33338  0.76647  1.0000
  C   C74       1.0  0.17711  0.68847  0.71383  1.0000
  C   C75       1.0  0.81514  0.36641  0.73475  1.0000
  C   C76       1.0  0.19984  0.65398  0.70290  1.0000
  C   C77       1.0  0.82834  0.38465  0.72469  1.0000
  C   C78       1.0  0.18835  0.63430  0.71402  1.0000
  C   C79       1.0  0.67508  0.42749  0.65427  1.0000
  C   C80       1.0  0.33911  0.58386  0.61964  1.0000
  C   C81       1.0  0.49300  0.52062  0.70625  1.0000
  C   C82       1.0  0.52280  0.49040  0.70894  1.0000
  C   C83       1.0  0.44559  0.67119  0.66127  1.0000
  C   C84       1.0  0.55002  0.34414  0.62515  1.0000
  C   C85       1.0  0.15966  0.93966  0.73446  1.0000
  C   C86       1.0  0.82447  0.07939  0.81022  1.0000
  C   C87       1.0  0.35474  0.81293  0.67994  1.0000
  C   C88       1.0  0.63110  0.20307  0.65963  1.0000
  C   C89       1.0  0.32046  0.83210  0.69636  1.0000
  C   C90       1.0  0.66530  0.18450  0.69208  1.0000
  C   C91       1.0  0.30136  0.86692  0.69822  1.0000
  C   C92       1.0  0.68326  0.15021  0.70207  1.0000
  C   C93       1.0  0.31746  0.88214  0.67944  1.0000
  C   C94       1.0  0.66638  0.13470  0.68422  1.0000
  C   C95       1.0  0.35165  0.86341  0.66298  1.0000
  C   C96       1.0  0.63196  0.15299  0.65688  1.0000
  C   C97       1.0  0.36986  0.82917  0.66627  1.0000
  C   C98       1.0  0.61500  0.18689  0.64216  1.0000
  C   C99       1.0  0.42320  0.91810  0.57159  1.0000
  C   C100      1.0  0.55656  0.09606  0.61364  1.0000
  C   C101      1.0  0.49678  0.01451  0.66627  1.0000
  C   C102      1.0  0.46870  0.01529  0.66657  1.0000
  C   C103      1.0  0.65192  0.90646  0.57970  1.0000
  C   C104      1.0  0.31103  0.11393  0.57567  1.0000
  C   C105      1.0  0.90454  0.91897  0.94734  1.0000
  C   C106      1.0  0.08292  0.08744  0.91777  1.0000
  C   C107      1.0  0.78930  0.85706  0.61465  1.0000
  C   C108      1.0  0.17739  0.15515  0.61691  1.0000
  C   C109      1.0  0.80426  0.87378  0.66839  1.0000
  C   C110      1.0  0.16487  0.13752  0.64978  1.0000
  C   C111      1.0  0.83865  0.85617  0.69532  1.0000
  C   C112      1.0  0.13184  0.15405  0.68855  1.0000
  C   C113      1.0  0.85802  0.82151  0.67033  1.0000
  C   C114      1.0  0.11101  0.18888  0.69476  1.0000
  C   C115      1.0  0.84351  0.80422  0.62070  1.0000
  C   C116      1.0  0.12352  0.20693  0.66854  1.0000
  C   C117      1.0  0.80938  0.82247  0.59027  1.0000
  C   C118      1.0  0.15625  0.18969  0.62731  1.0000
  C   C119      1.0  0.91822  0.66313  0.62639  1.0000
  C   C120      1.0  0.07427  0.34437  0.71918  1.0000
  C   C121      1.0  0.01566  0.48992  0.76238  1.0000
  C   C122      1.0  0.01416  0.51822  0.75788  1.0000
  C   C123      1.0  0.00721  0.00064  0.73612  1.0000
  C   C124      1.0  0.97656  0.03014  0.74201  1.0000
  N   N1        1.0  0.94341  0.13811  0.22312  1.0000
  N   N2        1.0  0.05839  0.83950  0.21071  1.0000
  N   N3        1.0  0.35015  0.54022  0.17269  1.0000
  N   N4        1.0  0.64370  0.44512  0.21735  1.0000
  N   N5        1.0  0.44508  0.64211  0.25421  1.0000
  N   N6        1.0  0.54948  0.34787  0.23756  1.0000
  N   N7        1.0  0.15205  0.94621  0.22352  1.0000
  N   N8        1.0  0.86082  0.03183  0.17262  1.0000
  N   N9        1.0  0.53643  0.09906  0.12652  1.0000
  N   N10       1.0  0.46996  0.89302  0.08797  1.0000
  N   N11       1.0  0.66396  0.90197  0.16170  1.0000
  N   N12       1.0  0.35913  0.07873  0.18342  1.0000
  N   N13       1.0  0.08421  0.34151  0.29123  1.0000
  N   N14       1.0  0.90996  0.64386  0.18850  1.0000
  N   N15       1.0  0.89580  0.45595  0.28622  1.0000
  N   N16       1.0  0.08948  0.53606  0.34470  1.0000
  N   N17       1.0  0.94661  0.15999  0.74529  1.0000
  N   N18       1.0  0.05937  0.86302  0.69817  1.0000
  N   N19       1.0  0.36067  0.55430  0.65826  1.0000
  N   N20       1.0  0.65293  0.45894  0.67656  1.0000
  N   N21       1.0  0.45140  0.65423  0.77025  1.0000
  N   N22       1.0  0.54597  0.36446  0.74002  1.0000
  N   N23       1.0  0.13708  0.97013  0.70974  1.0000
  N   N24       1.0  0.84633  0.05743  0.71715  1.0000
  N   N25       1.0  0.52584  0.11057  0.64257  1.0000
  N   N26       1.0  0.45156  0.90947  0.63481  1.0000
  N   N27       1.0  0.63380  0.92139  0.69382  1.0000
  N   N28       1.0  0.33137  0.10196  0.68844  1.0000
  N   N29       1.0  0.09542  0.35207  0.74578  1.0000
  N   N30       1.0  0.90568  0.64698  0.64291  1.0000
  N   N31       1.0  0.91829  0.46388  0.78152  1.0000
  N   N32       1.0  0.11137  0.54750  0.82874  1.0000
  O   O1        1.0  0.95480  0.90706  0.41621  1.0000
  O   O2        1.0  0.07510  0.07310  0.40764  1.0000
  O   O3        1.0  0.92895  0.91443  0.89661  1.0000
  O   O4        1.0  0.05362  0.09768  0.91449  1.0000
  C   C125      1.0  0.89588  0.39060  0.29905  1.0000
  C   C126      1.0  0.88132  0.41580  0.20464  1.0000
  C  Sn1       1.0  0.85468  0.42154  0.10911  1.0000
  C  Sn2       1.0  0.84245  0.40165  0.10836  1.0000
  C   C127      1.0  0.85717  0.37651  0.20331  1.0000
  C   C128      1.0  0.88382  0.37098  0.29842  1.0000
  H   H73       1.0  0.91648  0.38633  0.37271  1.0000
  O  Te1       1.0  0.84043  0.44681  0.01546  1.0000
  O  Te2       1.0  0.81585  0.40685  0.01404  1.0000
  H   H74       1.0  0.89507  0.35148  0.37158  1.0000
  Mg  Mg1       1.0  0.81410  0.46512  0.90694  1.0000
  C   C129      1.0  0.15071  0.56817  0.16954  1.0000
  C   C130      1.0  0.13646  0.59937  0.24799  1.0000
  C  Sn3       1.0  0.11068  0.61125  0.34170  1.0000
  C  Sn4       1.0  0.09901  0.59147  0.35696  1.0000
  C   C131      1.0  0.11345  0.56028  0.27808  1.0000
  C   C132      1.0  0.13922  0.54864  0.18457  1.0000
  H   H75       1.0  0.17066  0.55915  0.09725  1.0000
  O  Te3       1.0  0.09672  0.64248  0.41922  1.0000
  O  Te4       1.0  0.07329  0.60273  0.44991  1.0000
  H   H76       1.0  0.15026  0.52447  0.12392  1.0000
  Mg  Mg2       1.0  0.06225  0.64698  0.53229  1.0000
  C   C133      1.0  0.93417  0.22333  0.38374  1.0000
  C   C134      1.0  0.93091  0.19813  0.31592  1.0000
  C  Sn5       1.0  0.90551  0.20516  0.20977  1.0000
  C  Sn6       1.0  0.88300  0.23804  0.17100  1.0000
  C   C135      1.0  0.88649  0.26306  0.23942  1.0000
  C   C136      1.0  0.91199  0.25576  0.34553  1.0000
  H   H77       1.0  0.95391  0.21768  0.46578  1.0000
  O  Te5       1.0  0.90260  0.17969  0.14313  1.0000
  O  Te6       1.0  0.85740  0.24575  0.06523  1.0000
  H   H78       1.0  0.91452  0.27527  0.39795  1.0000
  Mg  Mg3       1.0  0.86364  0.20254  0.00534  1.0000
  C   C137      1.0  0.06482  0.76685  0.40075  1.0000
  C   C138      1.0  0.06935  0.78699  0.32864  1.0000
  C  Sn7       1.0  0.09490  0.77287  0.23091  1.0000
  C  Sn8       1.0  0.11626  0.73794  0.20508  1.0000
  C   C139      1.0  0.11151  0.71801  0.27768  1.0000
  C   C140      1.0  0.08587  0.73239  0.37529  1.0000
  H   H79       1.0  0.04498  0.77798  0.47621  1.0000
  O  Te7       1.0  0.09908  0.79335  0.15983  1.0000
  O  Te8       1.0  0.14198  0.72318  0.10792  1.0000
  H   H80       1.0  0.08236  0.71680  0.43103  1.0000
  Mg  Mg4       1.0  0.13769  0.76155  0.03743  1.0000
  C   C141      1.0  0.72913  0.35535  0.15553  1.0000
  C   C142      1.0  0.70503  0.38713  0.21524  1.0000
  C  Sn9       1.0  0.71391  0.40823  0.28393  1.0000
  C  Sn10      1.0  0.74756  0.39725  0.29281  1.0000
  C   C143      1.0  0.77148  0.36542  0.23265  1.0000
  C   C144      1.0  0.76232  0.34451  0.16419  1.0000
  H   H81       1.0  0.72204  0.33917  0.10249  1.0000
  O  Te9       1.0  0.68952  0.43989  0.34305  1.0000
  O  Te10      1.0  0.75712  0.41783  0.36081  1.0000
  H   H82       1.0  0.78098  0.31991  0.11789  1.0000
  Mg  Mg5       1.0  0.71482  0.45882  0.42486  1.0000
  C   C145      1.0  0.25845  0.57919  0.29913  1.0000
  C   C146      1.0  0.23137  0.61091  0.27099  1.0000
  C  Sn11      1.0  0.23516  0.63084  0.19332  1.0000
  C  Sn12      1.0  0.26667  0.61872  0.14299  1.0000
  C   C147      1.0  0.29360  0.58694  0.17161  1.0000
  C   C148      1.0  0.28953  0.56721  0.24948  1.0000
  H   H83       1.0  0.25530  0.56392  0.35930  1.0000
  O  Te11      1.0  0.20785  0.66247  0.16621  1.0000
  O  Te12      1.0  0.27115  0.63811  0.06506  1.0000
  H   H84       1.0  0.31050  0.54265  0.27116  1.0000
  Mg  Mg6       1.0  0.22641  0.67955  0.05543  1.0000
  C   C149      1.0  0.40034  0.54694  0.30276  1.0000
  C   C150      1.0  0.38465  0.53582  0.20043  1.0000
  C  Sn13      1.0  0.40249  0.51077  0.08885  1.0000
  C  Sn14      1.0  0.43669  0.49663  0.07985  1.0000
  C   C151      1.0  0.45216  0.50791  0.18282  1.0000
  C   C152      1.0  0.43406  0.53299  0.29400  1.0000
  H   H85       1.0  0.38634  0.56633  0.38883  1.0000
  O  Te13      1.0  0.39580  0.52078  0.98748  1.0000
  O  Te14      1.0  0.46449  0.49237  0.96948  1.0000
  H   H86       1.0  0.44623  0.54158  0.37327  1.0000
  Mg  Mg7       1.0  0.43150  0.48600  0.85704  1.0000
  C   C153      1.0  0.57768  0.48584  0.11090  1.0000
  C   C154      1.0  0.60390  0.46546  0.20655  1.0000
  C  Sn15      1.0  0.60022  0.44833  0.30292  1.0000
  C  Sn16      1.0  0.56971  0.45170  0.30325  1.0000
  C   C155      1.0  0.54364  0.47212  0.20706  1.0000
  C   C156      1.0  0.54758  0.48916  0.11112  1.0000
  H   H87       1.0  0.58074  0.49901  0.03661  1.0000
  O  Te15      1.0  0.62666  0.42808  0.39779  1.0000
  O  Te16      1.0  0.56537  0.43485  0.39838  1.0000
  H   H88       1.0  0.52729  0.50492  0.03700  1.0000
  Mg  Mg8       1.0  0.60868  0.41020  0.50707  1.0000
  C   C157      1.0  0.43799  0.59243  0.10900  1.0000
  C   C158      1.0  0.45202  0.60692  0.20001  1.0000
  C  Sn17      1.0  0.48068  0.58753  0.28640  1.0000
  C  Sn18      1.0  0.49553  0.55299  0.28132  1.0000
  C   C159      1.0  0.48131  0.53873  0.18983  1.0000
  C   C160      1.0  0.45262  0.55837  0.10388  1.0000
  H   H89       1.0  0.41580  0.60762  0.04243  1.0000
  O  Te17      1.0  0.49437  0.60241  0.37676  1.0000
  O  Te18      1.0  0.52419  0.53303  0.36647  1.0000
  H   H90       1.0  0.44178  0.54714  0.03335  1.0000
  Mg  Mg9       1.0  0.53356  0.56481  0.47228  1.0000
  C   C161      1.0  0.55273  0.39312  0.10317  1.0000
  C   C162      1.0  0.54089  0.38176  0.19321  1.0000
  C  Sn19      1.0  0.51444  0.40420  0.28365  1.0000
  C  Sn20      1.0  0.49961  0.43863  0.28369  1.0000
  C   C163      1.0  0.51162  0.44975  0.19314  1.0000
  C   C164      1.0  0.53811  0.42708  0.10311  1.0000
  H   H91       1.0  0.57321  0.37559  0.03345  1.0000
  O  Te19      1.0  0.50293  0.39243  0.37296  1.0000
  O  Te20      1.0  0.47314  0.46160  0.37297  1.0000
  H   H92       1.0  0.54726  0.43588  0.03334  1.0000
  Mg  Mg10      1.0  0.46625  0.43343  0.47540  1.0000
  C   C165      1.0  0.94304  0.08348  0.12933  1.0000
  C   C166      1.0  0.95450  0.10122  0.21282  1.0000
  C  Sn21      1.0  0.98287  0.08507  0.30519  1.0000
  C  Sn22      1.0  0.00002  0.05053  0.31387  1.0000
  C   C167      1.0  0.98837  0.03301  0.22982  1.0000
  C   C168      1.0  0.95995  0.04941  0.13779  1.0000
  H   H93       1.0  0.92106  0.09616  0.05806  1.0000
  O  Te21      1.0  0.99398  0.10317  0.38788  1.0000
  O  Te22      1.0  0.02845  0.03378  0.40525  1.0000
  H   H94       1.0  0.95109  0.03566  0.07309  1.0000
  Mg  Mg11      1.0  0.03388  0.06925  0.49641  1.0000
  C   C169      1.0  0.06095  0.88740  0.10787  1.0000
  C   C170      1.0  0.04991  0.87462  0.19405  1.0000
  C  Sn23      1.0  0.02504  0.89566  0.29394  1.0000
  C  Sn24      1.0  0.01101  0.93013  0.30754  1.0000
  C   C171      1.0  0.02221  0.94267  0.22075  1.0000
  C   C172      1.0  0.04712  0.92140  0.12118  1.0000
  H   H95       1.0  0.08021  0.87095  0.03077  1.0000
  O  Te23      1.0  0.01430  0.88248  0.37922  1.0000
  O  Te24      1.0  0.98611  0.95171  0.40647  1.0000
  H   H96       1.0  0.05565  0.93130  0.05440  1.0000
  Mg  Mg12      1.0  0.97978  0.92191  0.49851  1.0000
  C   C173      1.0  0.38908  0.72369  0.26682  1.0000
  C   C174      1.0  0.41552  0.69928  0.18025  1.0000
  C  Sn25      1.0  0.42927  0.70805  0.08702  1.0000
  C  Sn26      1.0  0.41628  0.74192  0.08060  1.0000
  C   C175      1.0  0.38984  0.76615  0.16772  1.0000
  C   C176      1.0  0.37626  0.75710  0.26060  1.0000
  H   H97       1.0  0.37858  0.71669  0.33874  1.0000
  O  Te25      1.0  0.45567  0.68335  0.00123  1.0000
  O  Te26      1.0  0.43894  0.77219  0.98841  1.0000
  H   H98       1.0  0.35580  0.77600  0.32768  1.0000
  Mg  Mg13      1.0  0.47474  0.72943  0.89275  1.0000
  C   C177      1.0  0.61132  0.26962  0.24831  1.0000
  C   C178      1.0  0.58525  0.28844  0.14868  1.0000
  C  Sn27      1.0  0.57659  0.27291  0.03180  1.0000
  C  Sn28      1.0  0.59440  0.23789  0.01466  1.0000
  C   C179      1.0  0.62043  0.21929  0.11499  1.0000
  C   C180      1.0  0.62889  0.23508  0.23152  1.0000
  H   H99       1.0  0.61786  0.28184  0.33853  1.0000
  O  Te27      1.0  0.55985  0.31290  0.93323  1.0000
  O  Te28      1.0  0.59563  0.24255  0.89887  1.0000
  H   H100      1.0  0.64907  0.22051  0.30870  1.0000
  Mg  Mg14      1.0  0.55811  0.27945  0.79310  1.0000
  C   C181      1.0  0.26269  0.86847  0.35134  1.0000
  C   C182      1.0  0.27751  0.87181  0.24014  1.0000
  C  Sn29      1.0  0.25844  0.89693  0.14585  1.0000
  C  Sn30      1.0  0.22390  0.91907  0.16352  1.0000
  C   C183      1.0  0.20931  0.91554  0.27518  1.0000
  C   C184      1.0  0.22863  0.89031  0.36888  1.0000
  H   H101      1.0  0.27764  0.84896  0.42390  1.0000
  O  Te29      1.0  0.27364  0.89991  0.03530  1.0000
  O  Te30      1.0  0.20425  0.94441  0.07086  1.0000
  H   H102      1.0  0.21715  0.88774  0.45503  1.0000
  Mg  Mg15      1.0  0.24576  0.95920  0.93652  1.0000
  C   C185      1.0  0.76217  0.07330  0.07962  1.0000
  C   C186      1.0  0.73763  0.10349  0.15018  1.0000
  C  Sn31      1.0  0.74618  0.12185  0.25000  1.0000
  C  Sn32      1.0  0.77996  0.10971  0.27946  1.0000
  C   C187      1.0  0.80433  0.07950  0.20822  1.0000
  C   C188      1.0  0.79549  0.06132  0.10857  1.0000
  H   H103      1.0  0.75534  0.05924  0.00245  1.0000
  O  Te31      1.0  0.72134  0.15196  0.31957  1.0000
  O  Te32      1.0  0.78920  0.12757  0.37869  1.0000
  H   H104      1.0  0.81450  0.03796  0.05389  1.0000
  Mg  Mg16      1.0  0.74633  0.16726  0.44595  1.0000
  C   C189      1.0  0.43663  0.85477  0.15858  1.0000
  C   C190      1.0  0.42598  0.88394  0.09841  1.0000
  C  Sn33      1.0  0.39277  0.90560  0.05575  1.0000
  C  Sn34      1.0  0.36986  0.89785  0.07385  1.0000
  C   C191      1.0  0.38076  0.86861  0.13426  1.0000
  C   C192      1.0  0.41405  0.84711  0.17652  1.0000
  H   H105      1.0  0.46239  0.83814  0.19136  1.0000
  O  Te33      1.0  0.39191  0.95544  0.99577  1.0000
  O  Te34      1.0  0.33652  0.91906  0.03220  1.0000
  H   H106      1.0  0.42229  0.82454  0.22320  1.0000
  Mg  Mg17      1.0  0.34392  0.97647  0.95567  1.0000
  C   C193      1.0  0.62114  0.07869  0.98315  1.0000
  C   C194      1.0  0.58465  0.06931  0.06733  1.0000
  C  Sn35      1.0  0.57195  0.09829  0.16265  1.0000
  C  Sn36      1.0  0.58671  0.11611  0.17363  1.0000
  C   C195      1.0  0.61382  0.10447  0.08887  1.0000
  C   C196      1.0  0.63571  0.09625  0.99387  1.0000
  H   H107      1.0  0.63082  0.05623  0.90959  1.0000
  O  Te35      1.0  0.54485  0.10937  0.24600  1.0000
  O  Te36      1.0  0.57450  0.14515  0.26798  1.0000
  H   H108      1.0  0.65669  0.08741  0.92864  1.0000
  Mg  Mg18      1.0  0.53714  0.15026  0.35892  1.0000
  C   C197      1.0  0.54195  0.05275  0.29131  1.0000
  C   C198      1.0  0.53050  0.07393  0.17960  1.0000
  C  Sn37      1.0  0.50988  0.07313  0.06334  1.0000
  C  Sn38      1.0  0.50059  0.05069  0.05916  1.0000
  C   C199      1.0  0.51216  0.02962  0.17151  1.0000
  C   C200      1.0  0.53279  0.03061  0.28731  1.0000
  H   H109      1.0  0.55790  0.05353  0.38095  1.0000
  O  Te37      1.0  0.50805  0.11527  0.95260  1.0000
  O  Te38      1.0  0.48938  0.07020  0.94428  1.0000
  H   H110      1.0  0.54163  0.01422  0.37383  1.0000
  Mg  Mg19      1.0  0.48049  0.10421  0.81905  1.0000
  C   C201      1.0  0.47507  0.94160  0.26050  1.0000
  C   C202      1.0  0.47990  0.91819  0.14233  1.0000
  C  Sn39      1.0  0.49789  0.91319  0.02217  1.0000
  C  Sn40      1.0  0.51126  0.93201  0.02061  1.0000
  C   C203      1.0  0.50630  0.95535  0.13941  1.0000
  C   C204      1.0  0.48826  0.96016  0.25907  1.0000
  H   H111      1.0  0.46112  0.94531  0.35313  1.0000
  O  Te39      1.0  0.51185  0.91053  0.90500  1.0000
  O  Te40      1.0  0.53872  0.94832  0.90193  1.0000
  H   H112      1.0  0.48454  0.97827  0.35059  1.0000
  Mg  Mg20      1.0  0.53828  0.91338  0.76821  1.0000
  C   C205      1.0  0.60145  0.91554  0.21028  1.0000
  C   C206      1.0  0.62488  0.91766  0.15017  1.0000
  C  Sn41      1.0  0.61542  0.94666  0.09212  1.0000
  C  Sn42      1.0  0.58188  0.97401  0.09449  1.0000
  C   C207      1.0  0.55864  0.97166  0.15497  1.0000
  C   C208      1.0  0.56837  0.94251  0.21271  1.0000
  H   H113      1.0  0.60898  0.89300  0.25503  1.0000
  O  Te41      1.0  0.63914  0.94835  0.03243  1.0000
  O  Te42      1.0  0.14484  0.00330  0.03728  1.0000
  H   H114      1.0  0.55023  0.94089  0.25933  1.0000
  Mg  Mg21      1.0  0.62261  0.01440  0.96779  1.0000
  C   C209      1.0  0.41482  0.02460  0.04218  1.0000
  C   C210      1.0  0.39579  0.05396  0.13248  1.0000
  C  Sn43      1.0  0.41095  0.06678  0.22733  1.0000
  C  Sn44      1.0  0.44581  0.04982  0.23158  1.0000
  C   C211      1.0  0.46464  0.02047  0.14073  1.0000
  C   C212      1.0  0.44921  0.00787  0.04626  1.0000
  H   H115      1.0  0.41226  0.03566  0.96903  1.0000
  O  Te43      1.0  0.39156  0.09614  0.31684  1.0000
  O  Te44      1.0  0.46160  0.06208  0.32530  1.0000
  H   H116      1.0  0.90024  0.00595  0.97629  1.0000
  Mg  Mg22      1.0  0.42452  0.10297  0.42617  1.0000
  C   C213      1.0  0.10828  0.93418  0.33516  1.0000
  C   C214      1.0  0.11964  0.94869  0.26255  1.0000
  C  Sn45      1.0  0.09743  0.97620  0.18456  1.0000
  C  Sn46      1.0  0.06322  0.98939  0.17939  1.0000
  C   C215      1.0  0.05210  0.97470  0.25248  1.0000
  C   C216      1.0  0.07454  0.94718  0.33017  1.0000
  H   H117      1.0  0.12564  0.91289  0.39534  1.0000
  O  Te45      1.0  0.10920  0.99039  0.11259  1.0000
  O  Te46      1.0  0.61357  0.01687  0.10229  1.0000
  H   H118      1.0  0.06573  0.93596  0.38646  1.0000
  Mg  Mg23      1.0  0.64164  0.02752  0.02193  1.0000
  C   C217      1.0  0.92651  0.99080  0.09037  1.0000
  C   C218      1.0  0.47337  0.01284  0.18258  1.0000
  C  Sn47      1.0  0.47741  0.03094  0.30438  1.0000
  C  Sn48      1.0  0.50831  0.02687  0.33411  1.0000
  C   C219      1.0  0.96131  0.00478  0.24114  1.0000
  C   C220      1.0  0.95700  0.98678  0.11959  1.0000
  H   H119      1.0  0.93255  0.99770  0.99627  1.0000
  O  Te47      1.0  0.45094  0.05284  0.39540  1.0000
  O  Te48      1.0  0.51302  0.04467  0.45506  1.0000
  H   H120      1.0  0.97731  0.96974  0.04816  1.0000
  Mg  Mg24      1.0  0.46951  0.07151  0.54681  1.0000
  C   C221      1.0  0.75048  0.89249  0.21799  1.0000
  C   C222      1.0  0.77721  0.86850  0.13191  1.0000
  C  Sn49      1.0  0.77227  0.85307  0.00144  1.0000
  C  Sn50      1.0  0.74930  0.88269  0.95659  1.0000
  C   C223      1.0  0.71335  0.88592  0.04343  1.0000
  C   C224      1.0  0.71858  0.90120  0.17380  1.0000
  H   H121      1.0  0.75453  0.90432  0.31882  1.0000
  O  Te49      1.0  0.80862  0.84996  0.91677  1.0000
  O  Te50      1.0  0.74366  0.86767  0.82667  1.0000
  H   H122      1.0  0.69788  0.91979  0.24038  1.0000
  Mg  Mg25      1.0  0.78837  0.83648  0.74869  1.0000
  C   C225      1.0  0.27450  0.08661  0.22992  1.0000
  C   C226      1.0  0.24508  0.11036  0.15944  1.0000
  C  Sn51      1.0  0.24576  0.12586  0.04482  1.0000
  C  Sn52      1.0  0.27649  0.11738  0.00015  1.0000
  C   C227      1.0  0.30578  0.09358  0.07129  1.0000
  C   C228      1.0  0.30482  0.07823  0.18589  1.0000
  H   H123      1.0  0.27376  0.07472  0.31854  1.0000
  O  Te51      1.0  0.22551  0.17035  0.97562  1.0000
  O  Te52      1.0  0.28725  0.15330  0.88587  1.0000
  H   H124      1.0  0.32760  0.05983  0.24038  1.0000
  Mg  Mg26      1.0  0.24019  0.18407  0.82556  1.0000
  C   C229      1.0  0.86407  0.90126  0.38209  1.0000
  C   C230      1.0  0.87680  0.87249  0.28521  1.0000
  C  Sn53      1.0  0.90865  0.85606  0.23417  1.0000
  C  Sn54      1.0  0.92806  0.86871  0.28123  1.0000
  C   C231      1.0  0.91512  0.89750  0.37826  1.0000
  C   C232      1.0  0.88321  0.91375  0.42860  1.0000
  H   H125      1.0  0.83940  0.91383  0.42111  1.0000
  O  Te53      1.0  0.92097  0.82736  0.13737  1.0000
  O  Te54      1.0  0.95997  0.85278  0.23198  1.0000
  H   H126      1.0  0.87338  0.93601  0.50369  1.0000
  Mg  Mg27      1.0  0.96584  0.81447  0.10090  1.0000
  C   C233      1.0  0.09735  0.11462  0.27602  1.0000
  C   C234      1.0  0.11297  0.08602  0.34972  1.0000
  C  Sn55      1.0  0.14620  0.07018  0.39634  1.0000
  C  Sn56      1.0  0.16405  0.08326  0.36855  1.0000
  C   C235      1.0  0.14819  0.11189  0.29482  1.0000
  C   C236      1.0  0.11493  0.12754  0.24861  1.0000
  H   H127      1.0  0.07161  0.12674  0.24033  1.0000
  O  Te55      1.0  0.16143  0.04162  0.46979  1.0000
  O  Te56      1.0  0.19728  0.06792  0.41399  1.0000
  H   H128      1.0  0.10284  0.14969  0.19163  1.0000
  Mg  Mg28      1.0  0.20714  0.02960  0.51002  1.0000
  C   C237      1.0  0.86738  0.74111  0.22087  1.0000
  C   C238      1.0  0.88282  0.75592  0.18940  1.0000
  C  Sn57      1.0  0.91453  0.73654  0.13438  1.0000
  C  Sn58      1.0  0.93101  0.70170  0.11049  1.0000
  C   C239      1.0  0.91534  0.68712  0.14222  1.0000
  C   C240      1.0  0.88361  0.70674  0.19729  1.0000
  H   H129      1.0  0.84283  0.75629  0.26340  1.0000
  O  Te57      1.0  0.92960  0.75175  0.10357  1.0000
  O  Te58      1.0  0.96270  0.68175  0.05554  1.0000
  H   H130      1.0  0.87165  0.69526  0.22156  1.0000
  Mg  Mg29      1.0  0.97297  0.71402  0.03042  1.0000
  C   C241      1.0  0.08738  0.24489  0.16693  1.0000
  C   C242      1.0  0.12103  0.22255  0.19981  1.0000
  C  Sn59      1.0  0.14020  0.23404  0.26311  1.0000
  C  Sn60      1.0  0.12534  0.26855  0.29397  1.0000
  C   C243      1.0  0.09165  0.29070  0.26076  1.0000
  C   C244      1.0  0.07270  0.27893  0.19739  1.0000
  H   H131      1.0  0.07271  0.23579  0.11797  1.0000
  O  Te59      1.0  0.17379  0.21137  0.29521  1.0000
  O  Te60      1.0  0.14393  0.28070  0.35726  1.0000
  H   H132      1.0  0.04664  0.29624  0.17203  1.0000
  Mg  Mg30      1.0  0.18878  0.24001  0.38089  1.0000
  C   C245      1.0  0.05976  0.42138  0.24938  1.0000
  C   C246      1.0  0.02586  0.44186  0.27204  1.0000
  C  Sn61      1.0  0.00981  0.42917  0.32069  1.0000
  C  Sn62      1.0  0.02809  0.39533  0.34708  1.0000
  C   C247      1.0  0.06200  0.37505  0.32418  1.0000
  C   C248      1.0  0.07781  0.38800  0.27544  1.0000
  H   H133      1.0  0.07200  0.43140  0.21175  1.0000
  O  Te61      1.0  0.97593  0.44998  0.34272  1.0000
  O  Te62      1.0  0.01267  0.38200  0.39580  1.0000
  H   H134      1.0  0.10406  0.37214  0.25800  1.0000
  Mg  Mg31      1.0  0.96602  0.42028  0.40979  1.0000
  C   C249      1.0  0.93040  0.56280  0.16235  1.0000
  C   C250      1.0  0.96201  0.54445  0.22933  1.0000
  C  Sn63      1.0  0.97653  0.56034  0.30095  1.0000
  C  Sn64      1.0  0.95901  0.59525  0.30545  1.0000
  C   C251      1.0  0.92739  0.61338  0.23820  1.0000
  C   C252      1.0  0.91310  0.59723  0.16679  1.0000
  H   H135      1.0  0.91934  0.55031  0.10717  1.0000
  O  Te63      1.0  0.00814  0.54164  0.36724  1.0000
  O  Te64      1.0  0.97293  0.61175  0.37633  1.0000
  H   H136      1.0  0.88862  0.61144  0.11503  1.0000
  Mg  Mg32      1.0  0.01664  0.57544  0.45041  1.0000
  C   C253      1.0  0.91802  0.49622  0.39648  1.0000
  C   C254      1.0  0.90831  0.48021  0.28732  1.0000
  C  Sn65      1.0  0.92460  0.46636  0.15434  1.0000
  C  Sn66      1.0  0.95111  0.46860  0.13052  1.0000
  C   C255      1.0  0.96065  0.48464  0.24046  1.0000
  C   C256      1.0  0.94417  0.49843  0.37310  1.0000
  H   H137      1.0  0.90528  0.50687  0.49914  1.0000
  O  Te65      1.0  0.91458  0.45046  0.04643  1.0000
  O  Te66      1.0  0.97720  0.47577  0.99866  1.0000
  H   H138      1.0  0.95170  0.51080  0.45763  1.0000
  Mg  Mg33      1.0  0.95441  0.45660  0.88504  1.0000
  C   C257      1.0  0.06688  0.50051  0.43223  1.0000
  C   C258      1.0  0.07714  0.51123  0.33080  1.0000
  C  Sn67      1.0  0.06167  0.51807  0.19010  1.0000
  C  Sn68      1.0  0.03544  0.51408  0.15055  1.0000
  C   C259      1.0  0.02534  0.50337  0.25285  1.0000
  C   C260      1.0  0.04100  0.49659  0.39333  1.0000
  H   H139      1.0  0.07898  0.49528  0.54095  1.0000
  O  Te67      1.0  0.07225  0.52874  0.09009  1.0000
  O  Te68      1.0  0.01954  0.52075  0.01069  1.0000
  H   H140      1.0  0.03303  0.48831  0.47187  1.0000
  Mg  Mg34      1.0  0.05222  0.55550  0.91283  1.0000
  C   C261      1.0  0.90574  0.39262  0.83402  1.0000
  C   C262      1.0  0.87966  0.39183  0.76162  1.0000
  C  Sn69      1.0  0.86145  0.41150  0.64559  1.0000
  C  Sn70      1.0  0.86957  0.43232  0.60145  1.0000
  C   C263      1.0  0.89571  0.43292  0.67452  1.0000
  C   C264      1.0  0.91377  0.41314  0.79051  1.0000
  H   H141      1.0  0.91972  0.37731  0.92371  1.0000
  O  Te69      1.0  0.83547  0.41041  0.57449  1.0000
  O  Te70      1.0  0.85178  0.45223  0.48580  1.0000
  H   H142      1.0  0.93397  0.41375  0.84648  1.0000
  Mg  Mg35      1.0  0.81852  0.44212  0.42308  1.0000
  C   C265      1.0  0.11816  0.61131  0.86611  1.0000
  C   C266      1.0  0.12675  0.58404  0.76388  1.0000
  C  Sn71      1.0  0.14739  0.57576  0.64919  1.0000
  C  Sn72      1.0  0.15963  0.59518  0.63693  1.0000
  C   C267      1.0  0.15091  0.62240  0.73983  1.0000
  C   C268      1.0  0.13023  0.63047  0.85413  1.0000
  H   H143      1.0  0.10218  0.61754  0.95460  1.0000
  O  Te71      1.0  0.15572  0.54844  0.54797  1.0000
  O  Te72      1.0  0.18031  0.58746  0.52341  1.0000
  H   H144      1.0  0.12360  0.65157  0.93333  1.0000
  Mg  Mg36      1.0  0.18464  0.54786  0.41253  1.0000
  C   C269      1.0  0.93507  0.24353  0.94776  1.0000
  C   C270      1.0  0.93147  0.21915  0.87137  1.0000
  C  Sn73      1.0  0.90849  0.22684  0.75251  1.0000
  C  Sn74      1.0  0.88879  0.25955  0.70954  1.0000
  C   C271      1.0  0.89260  0.28376  0.78661  1.0000
  C   C272      1.0  0.91566  0.27580  0.90542  1.0000
  H   H145      1.0  0.94356  0.21656  0.03964  1.0000
  O  Te73      1.0  0.90520  0.20218  0.67743  1.0000
  O  Te74      1.0  0.86565  0.26791  0.59111  1.0000
  H   H146      1.0  0.91846  0.29468  0.96448  1.0000
  Mg  Mg37      1.0  0.87026  0.22570  0.52334  1.0000
  C   C273      1.0  0.07182  0.78331  0.84588  1.0000
  C   C274      1.0  0.07443  0.80604  0.78497  1.0000
  C  Sn75      1.0  0.10001  0.79501  0.69148  1.0000
  C  Sn76      1.0  0.12337  0.76056  0.65854  1.0000
  C   C275      1.0  0.12053  0.73802  0.71996  1.0000
  C   C276      1.0  0.09484  0.74933  0.81341  1.0000
  H   H147      1.0  0.05193  0.79206  0.91812  1.0000
  O  Te75      1.0  0.10227  0.81806  0.63161  1.0000
  O  Te76      1.0  0.14918  0.74886  0.56541  1.0000
  H   H148      1.0  0.09281  0.73172  0.86048  1.0000
  Mg  Mg38      1.0  0.14182  0.78996  0.51080  1.0000
  C   C277      1.0  0.74123  0.37153  0.61774  1.0000
  C   C278      1.0  0.71535  0.40350  0.66638  1.0000
  C  Sn77      1.0  0.72195  0.42629  0.73577  1.0000
  C  Sn78      1.0  0.75510  0.41684  0.75667  1.0000
  C   C279      1.0  0.78081  0.38480  0.70752  1.0000
  C   C280      1.0  0.77392  0.36219  0.63826  1.0000
  H   H149      1.0  0.73590  0.35403  0.56408  1.0000
  O  Te77      1.0  0.69581  0.45813  0.78374  1.0000
  O  Te78      1.0  0.76239  0.43913  0.82564  1.0000
  H   H150      1.0  0.79396  0.33744  0.60053  1.0000
  Mg  Mg39      1.0  0.71830  0.47967  0.87178  1.0000
  C   C281      1.0  0.28507  0.59103  0.74761  1.0000
  C   C282      1.0  0.30124  0.59611  0.65014  1.0000
  C  Sn79      1.0  0.28359  0.62372  0.56898  1.0000
  C  Sn80      1.0  0.24911  0.64661  0.58599  1.0000
  C   C283      1.0  0.23316  0.64131  0.68386  1.0000
  C   C284      1.0  0.25106  0.61360  0.76449  1.0000
  H   H151      1.0  0.29892  0.56960  0.81006  1.0000
  O  Te79      1.0  0.30014  0.62842  0.47204  1.0000
  O  Te80      1.0  0.23087  0.67441  0.50628  1.0000
  H   H152      1.0  0.23853  0.60968  0.84002  1.0000
  Mg  Mg40      1.0  0.26453  0.67005  0.38784  1.0000
  C   C285      1.0  0.42478  0.56315  0.76989  1.0000
  C   C286      1.0  0.45368  0.53353  0.72117  1.0000
  C  Sn81      1.0  0.45216  0.50836  0.63884  1.0000
  C  Sn82      1.0  0.42108  0.51300  0.60481  1.0000
  C   C287      1.0  0.39231  0.54273  0.65398  1.0000
  C   C288      1.0  0.39412  0.56775  0.73633  1.0000
  H   H153      1.0  0.42617  0.58251  0.83354  1.0000
  O  Te81      1.0  0.48128  0.47893  0.59107  1.0000
  O  Te82      1.0  0.41885  0.48826  0.52267  1.0000
  H   H154      1.0  0.37173  0.59068  0.77396  1.0000
  Mg  Mg41      1.0  0.46548  0.45252  0.48241  1.0000
  C   C289      1.0  0.60845  0.45036  0.79217  1.0000
  C   C290      1.0  0.61992  0.46293  0.70714  1.0000
  C  Sn83      1.0  0.59772  0.48908  0.62174  1.0000
  C  Sn84      1.0  0.56344  0.50285  0.62172  1.0000
  C   C291      1.0  0.55221  0.49011  0.70724  1.0000
  C   C292      1.0  0.57464  0.46394  0.79226  1.0000
  H   H155      1.0  0.62580  0.43012  0.85802  1.0000
  O  Te83      1.0  0.60960  0.50134  0.53738  1.0000
  O  Te84      1.0  0.54071  0.52901  0.53742  1.0000
  H   H156      1.0  0.56575  0.45422  0.85816  1.0000
  Mg  Mg42      1.0  0.56893  0.53719  0.44066  1.0000
  C   C293      1.0  0.46262  0.58245  0.59223  1.0000
  C   C294      1.0  0.48633  0.55690  0.67749  1.0000
  C  Sn85      1.0  0.50103  0.56353  0.80450  1.0000
  C  Sn86      1.0  0.49175  0.59638  0.84669  1.0000
  C   C295      1.0  0.46799  0.62178  0.76071  1.0000
  C   C296      1.0  0.45345  0.61486  0.63380  1.0000
  H   H157      1.0  0.45135  0.57711  0.49408  1.0000
  O  Te85      1.0  0.52469  0.53771  0.88839  1.0000
  O  Te86      1.0  0.50604  0.60371  0.97314  1.0000
  H   H158      1.0  0.43507  0.63465  0.56786  1.0000
  Mg  Mg43      1.0  0.52776  0.53929  0.05136  1.0000
  C   C297      1.0  0.55373  0.42177  0.61113  1.0000
  C   C298      1.0  0.53073  0.45240  0.68426  1.0000
  C  Sn87      1.0  0.50980  0.45488  0.78383  1.0000
  C  Sn88      1.0  0.51199  0.42612  0.81049  1.0000
  C   C299      1.0  0.53510  0.39559  0.73685  1.0000
  C   C300      1.0  0.55592  0.39339  0.63740  1.0000
  H   H159      1.0  0.56986  0.42006  0.53425  1.0000
  O  Te87      1.0  0.48695  0.48568  0.85591  1.0000
  O  Te88      1.0  0.49137  0.42790  0.90948  1.0000
  H   H160      1.0  0.57374  0.36967  0.58088  1.0000
  Mg  Mg44      1.0  0.46423  0.47547  0.98076  1.0000
  C   C301      1.0  0.94748  0.09143  0.61965  1.0000
  C   C302      1.0  0.96952  0.06621  0.70985  1.0000
  C  Sn89      1.0  0.98676  0.07180  0.82870  1.0000
  C  Sn90      1.0  0.98179  0.10324  0.85755  1.0000
  C   C303      1.0  0.95967  0.12831  0.76672  1.0000
  C   C304      1.0  0.94255  0.12246  0.64805  1.0000
  H   H161      1.0  0.93423  0.08691  0.52788  1.0000
  O  Te89      1.0  0.00870  0.04632  0.91768  1.0000
  O  Te90      1.0  0.99869  0.10949  0.97563  1.0000
  H   H162      1.0  0.92548  0.14199  0.57830  1.0000
  Mg  Mg45      1.0  0.01660  0.04607  0.06537  1.0000
  C   C305      1.0  0.05252  0.91642  0.60173  1.0000
  C   C306      1.0  0.04558  0.90023  0.68892  1.0000
  C  Sn91      1.0  0.02099  0.91839  0.79238  1.0000
  C  Sn92      1.0  0.00304  0.95342  0.80856  1.0000
  C   C307      1.0  0.01015  0.96939  0.72072  1.0000
  C   C308      1.0  0.03482  0.95097  0.61757  1.0000
  H   H163      1.0  0.07160  0.90217  0.52186  1.0000
  O  Te91      1.0  0.01438  0.90182  0.87864  1.0000
  O  Te92      1.0  0.97832  0.97219  0.91107  1.0000
  H   H164      1.0  0.04017  0.96352  0.55001  1.0000
  Mg  Mg46      1.0  0.96902  0.91745  0.00313  1.0000
  C   C309      1.0  0.42302  0.73310  0.56297  1.0000
  C   C310      1.0  0.42429  0.71105  0.64823  1.0000
  C  Sn93      1.0  0.39940  0.72223  0.74613  1.0000
  C  Sn94      1.0  0.37278  0.75612  0.75863  1.0000
  C   C311      1.0  0.37173  0.77797  0.67278  1.0000
  C   C312      1.0  0.39676  0.76653  0.57520  1.0000
  H   H165      1.0  0.44237  0.72424  0.48741  1.0000
  O  Te93      1.0  0.40106  0.69987  0.83052  1.0000
  O  Te94      1.0  0.34758  0.76795  0.85557  1.0000
  H   H166      1.0  0.39576  0.78360  0.50914  1.0000
  Mg  Mg47      1.0  0.36082  0.72788  0.94704  1.0000
  C   C313      1.0  0.56739  0.27902  0.51580  1.0000
  C   C314      1.0  0.56719  0.30392  0.61053  1.0000
  C  Sn95      1.0  0.59110  0.29575  0.72561  1.0000
  C  Sn96      1.0  0.61564  0.26201  0.74592  1.0000
  C   C315      1.0  0.61564  0.23729  0.65048  1.0000
  C   C316      1.0  0.59159  0.24574  0.53572  1.0000
  H   H167      1.0  0.54880  0.28556  0.42694  1.0000
  O  Te95      1.0  0.59053  0.32092  0.81928  1.0000
  O  Te96      1.0  0.63983  0.25314  0.86001  1.0000
  H   H168      1.0  0.59177  0.22646  0.46233  1.0000
  Mg  Mg48      1.0  0.62872  0.29639  0.95880  1.0000
  C   C317      1.0  0.22419  0.88338  0.78056  1.0000
  C   C318      1.0  0.19990  0.91571  0.74701  1.0000
  C  Sn97      1.0  0.20858  0.93438  0.68985  1.0000
  C  Sn98      1.0  0.24223  0.92034  0.66593  1.0000
  C   C319      1.0  0.26634  0.88796  0.69976  1.0000
  C   C320      1.0  0.25738  0.86951  0.75695  1.0000
  H   H169      1.0  0.21726  0.86909  0.82474  1.0000
  O  Te97      1.0  0.18400  0.96665  0.65697  1.0000
  O  Te98      1.0  0.25159  0.93844  0.60887  1.0000
  H   H170      1.0  0.27620  0.84447  0.78283  1.0000
  Mg  Mg49      1.0  0.20907  0.98143  0.58139  1.0000
  C   C321      1.0  0.74051  0.13959  0.87664  1.0000
  C   C322      1.0  0.72258  0.13548  0.75634  1.0000
  C  Sn99      1.0  0.73874  0.10883  0.64872  1.0000
  C  Sn100     1.0  0.77350  0.08592  0.66211  1.0000
  C   C323      1.0  0.79122  0.09024  0.78294  1.0000
  C   C324      1.0  0.77480  0.11700  0.88997  1.0000
  H   H171      1.0  0.72781  0.16028  0.95950  1.0000
  O  Te99      1.0  0.72045  0.10510  0.52920  1.0000
  O  Te100     1.0  0.79028  0.05907  0.55618  1.0000
  H   H172      1.0  0.78868  0.12016  0.98315  1.0000
  Mg  Mg50      1.0  0.75450  0.06454  0.41339  1.0000
  C   C325      1.0  0.36955  0.91183  0.49604  1.0000
  C   C326      1.0  0.39839  0.90657  0.56950  1.0000
  C  Sn101     1.0  0.41439  0.88441  0.67829  1.0000
  C  Sn102     1.0  0.40121  0.86723  0.71395  1.0000
  C   C327      1.0  0.37236  0.87265  0.63975  1.0000
  C   C328      1.0  0.35655  0.89489  0.53109  1.0000
  H   H173      1.0  0.35733  0.92902  0.41191  1.0000
  O  Te101     1.0  0.44317  0.87945  0.75064  1.0000
  O  Te102     1.0  0.41670  0.84494  0.82219  1.0000
  H   H174      1.0  0.33423  0.89894  0.47417  1.0000
  Mg  Mg51      1.0  0.45532  0.84657  0.89000  1.0000
  C   C329      1.0  0.56306  0.15046  0.70891  1.0000
  C   C330      1.0  0.56951  0.12094  0.63259  1.0000
  C  Sn103     1.0  0.59963  0.09850  0.56536  1.0000
  C  Sn104     1.0  0.62371  0.10582  0.57494  1.0000
  C   C331      1.0  0.61703  0.13541  0.65164  1.0000
  C   C332      1.0  0.58680  0.15769  0.71846  1.0000
  H   H175      1.0  0.53968  0.16770  0.76069  1.0000
  O  Te103     1.0  0.60566  0.06913  0.48950  1.0000
  O  Te104     1.0  0.65403  0.08382  0.50882  1.0000
  H   H176      1.0  0.58183  0.18053  0.77763  1.0000
  Mg  Mg52      1.0  0.65068  0.04702  0.41771  1.0000
  C   C333      1.0  0.53909  0.05312  0.74373  1.0000
  C   C334      1.0  0.52223  0.08182  0.67008  1.0000
  C  Sn105     1.0  0.49174  0.09251  0.59695  1.0000
  C  Sn106     1.0  0.47793  0.07408  0.59780  1.0000
  C   C335      1.0  0.49498  0.04541  0.67189  1.0000
  C   C336      1.0  0.52548  0.03493  0.74467  1.0000
  H   H177      1.0  0.56268  0.04501  0.80011  1.0000
  O  Te105     1.0  0.47523  0.12123  0.52386  1.0000
  O  Te106     1.0  0.44749  0.08421  0.52565  1.0000
  H   H178      1.0  0.96542  0.01272  0.80177  1.0000
  Mg  Mg53      1.0  0.43444  0.12500  0.44144  1.0000
  C   C337      1.0  0.43310  0.98838  0.71675  1.0000
  C   C338      1.0  0.46079  0.98713  0.68440  1.0000
  C  Sn107     1.0  0.48844  0.95750  0.62645  1.0000
  C  Sn108     1.0  0.48830  0.92863  0.60049  1.0000
  C   C339      1.0  0.46047  0.93015  0.63313  1.0000
  C   C340      1.0  0.43294  0.95992  0.69113  1.0000
  H   H179      1.0  0.41179  0.01142  0.76155  1.0000
  O  Te107     1.0  0.51590  0.95669  0.59480  1.0000
  O  Te108     1.0  0.51560  0.89870  0.54261  1.0000
  H   H180      1.0  0.41150  0.96089  0.71607  1.0000
  Mg  Mg54      1.0  0.54716  0.91006  0.51740  1.0000
  C   C341      1.0  0.55727  0.97427  0.52629  1.0000
  C   C342      1.0  0.53414  0.97911  0.62015  1.0000
  C  Sn109     1.0  0.54460  0.96284  0.74891  1.0000
  C  Sn110     1.0  0.57887  0.94134  0.78407  1.0000
  C   C343      1.0  0.60182  0.93667  0.68950  1.0000
  C   C344      1.0  0.59108  0.95307  0.56092  1.0000
  H   H181      1.0  0.54897  0.98697  0.42684  1.0000
  O  Te109     1.0  0.52115  0.96795  0.84143  1.0000
  O  Te110     1.0  0.59001  0.92477  0.91208  1.0000
  H   H182      1.0  0.60900  0.94933  0.48832  1.0000
  Mg  Mg55      1.0  0.53915  0.91897  0.00320  1.0000
  C   C345      1.0  0.40605  0.04919  0.52192  1.0000
  C   C346      1.0  0.43007  0.04710  0.62616  1.0000
  C  Sn111     1.0  0.42080  0.06662  0.76125  1.0000
  C  Sn112     1.0  0.38684  0.08859  0.79226  1.0000
  C   C347      1.0  0.36300  0.09048  0.68728  1.0000
  C   C348      1.0  0.37255  0.07085  0.55244  1.0000
  H   H183      1.0  0.41344  0.03399  0.41761  1.0000
  O  Te111     1.0  0.44512  0.06423  0.86413  1.0000
  O  Te112     1.0  0.37688  0.10837  0.92642  1.0000
  H   H184      1.0  0.35395  0.07245  0.47179  1.0000
  Mg  Mg56      1.0  0.40986  0.07547  0.03119  1.0000
  C   C349      1.0  0.05159  0.01623  0.63920  1.0000
  C   C350      1.0  0.46665  0.00337  0.72012  1.0000
  C  Sn113     1.0  0.48787  0.97953  0.81756  1.0000
  C  Sn114     1.0  0.52156  0.96840  0.83409  1.0000
  C   C351      1.0  0.53317  0.98142  0.75271  1.0000
  C   C352      1.0  0.51172  0.00527  0.65548  1.0000
  H   H185      1.0  0.03500  0.03469  0.56403  1.0000
  O  Te113     1.0  0.47563  0.96694  0.89752  1.0000
  O  Te114     1.0  0.54330  0.94459  0.93075  1.0000
  H   H186      1.0  0.09399  0.01523  0.59291  1.0000
  Mg  Mg57      1.0  0.50554  0.91408  0.01538  1.0000
  C   C353      1.0  0.34058  0.01325  0.66031  1.0000
  C   C354      1.0  0.88543  0.04074  0.72646  1.0000
  C  Sn115     1.0  0.88598  0.06730  0.79831  1.0000
  C  Sn116     1.0  0.91539  0.06625  0.80382  1.0000
  C   C355      1.0  0.94351  0.03864  0.73721  1.0000
  C   C356      1.0  0.36960  0.01219  0.66565  1.0000
  H   H187      1.0  0.33994  0.99280  0.60487  1.0000
  O  Te115     1.0  0.85755  0.09457  0.86386  1.0000
  O  Te116     1.0  0.91663  0.09245  0.87485  1.0000
  H   H188      1.0  0.39146  0.99092  0.61436  1.0000
  Mg  Mg58      1.0  0.87149  0.12418  0.94771  1.0000
  C   C357      1.0  0.71590  0.86540  0.46170  1.0000
  C   C358      1.0  0.69100  0.88915  0.55686  1.0000
  C  Sn117     1.0  0.69741  0.90689  0.67167  1.0000
  C  Sn118     1.0  0.72935  0.90070  0.69127  1.0000
  C   C359      1.0  0.75408  0.87691  0.59541  1.0000
  C   C360      1.0  0.74741  0.85928  0.48092  1.0000
  H   H189      1.0  0.71073  0.85178  0.37306  1.0000
  O  Te117     1.0  0.67226  0.93053  0.76577  1.0000
  O  Te118     1.0  0.73642  0.91809  0.80508  1.0000
  H   H190      1.0  0.76668  0.84091  0.40720  1.0000
  Mg  Mg59      1.0  0.69397  0.94782  0.90466  1.0000
  C   C361      1.0  0.22547  0.15864  0.49011  1.0000
  C   C362      1.0  0.21372  0.14365  0.55620  1.0000
  C  Sn119     1.0  0.23532  0.11661  0.63784  1.0000
  C  Sn120     1.0  0.26930  0.10442  0.65345  1.0000
  C   C363      1.0  0.28081  0.11961  0.58700  1.0000
  C   C364      1.0  0.25898  0.14664  0.50550  1.0000
  H   H191      1.0  0.20858  0.17957  0.42713  1.0000
  O  Te119     1.0  0.22317  0.10192  0.70310  1.0000
  O  Te120     1.0  0.29143  0.07744  0.73449  1.0000
  H   H192      1.0  0.26808  0.15826  0.45443  1.0000
  Mg  Mg60      1.0  0.26302  0.06578  0.80265  1.0000
  C   C365      1.0  0.85035  0.91223  0.93675  1.0000
  C   C366      1.0  0.88103  0.90476  0.90424  1.0000
  C  Sn121     1.0  0.89854  0.88141  0.78689  1.0000
  C  Sn122     1.0  0.88503  0.86529  0.70066  1.0000
  C   C367      1.0  0.85431  0.87295  0.73401  1.0000
  C   C368      1.0  0.83700  0.89635  0.85172  1.0000
  H   H193      1.0  0.82758  0.90953  0.02776  1.0000
  O  Te121     1.0  0.92916  0.87424  0.75596  1.0000
  O  Te122     1.0  0.90200  0.84187  0.58272  1.0000
  H   H194      1.0  0.81324  0.90214  0.87680  1.0000
  Mg  Mg61      1.0  0.94287  0.84050  0.58400  1.0000
  C   C369      1.0  0.13576  0.09339  0.87451  1.0000
  C   C370      1.0  0.10414  0.09985  0.85903  1.0000
  C  Sn123     1.0  0.07968  0.12426  0.77077  1.0000
  C  Sn124     1.0  0.08708  0.14249  0.69673  1.0000
  C   C371      1.0  0.11880  0.13582  0.71285  1.0000
  C   C372      1.0  0.14309  0.11135  0.80148  1.0000
  H   H195      1.0  0.15457  0.07445  0.94303  1.0000
  O  Te123     1.0  0.04821  0.13040  0.75655  1.0000
  O  Te124     1.0  0.06309  0.16701  0.60778  1.0000
  H   H196      1.0  0.16757  0.10634  0.81337  1.0000
  Mg  Mg62      1.0  0.02386  0.16630  0.62303  1.0000
  C   C373      1.0  0.91350  0.72087  0.56999  1.0000
  C   C374      1.0  0.90382  0.70162  0.61210  1.0000
  C  Sn125     1.0  0.87118  0.71624  0.64813  1.0000
  C  Sn126     1.0  0.84785  0.75077  0.64173  1.0000
  C   C375      1.0  0.85778  0.76982  0.59936  1.0000
  C   C376      1.0  0.89050  0.75494  0.56359  1.0000
  H   H197      1.0  0.93881  0.70936  0.54223  1.0000
  O  Te125     1.0  0.86192  0.69664  0.69004  1.0000
  O  Te126     1.0  0.81507  0.76602  0.67710  1.0000
  H   H198      1.0  0.89799  0.76985  0.53089  1.0000
  Mg  Mg63      1.0  0.81439  0.72883  0.72792  1.0000
  C   C377      1.0  0.11940  0.27908  0.80601  1.0000
  C   C378      1.0  0.09251  0.30484  0.73161  1.0000
  C  Sn127     1.0  0.07073  0.29964  0.64172  1.0000
  C  Sn128     1.0  0.07603  0.26804  0.62628  1.0000
  C   C379      1.0  0.10299  0.24243  0.70126  1.0000
  C   C380      1.0  0.12464  0.24790  0.79089  1.0000
  H   H199      1.0  0.13615  0.28331  0.87543  1.0000
  O  Te127     1.0  0.04399  0.32565  0.56813  1.0000
  O  Te128     1.0  0.05464  0.26216  0.53719  1.0000
  H   H200      1.0  0.14545  0.22796  0.84856  1.0000
  Mg  Mg64      1.0  0.02172  0.30545  0.45934  1.0000
  C   C381      1.0  0.08523  0.40893  0.64798  1.0000
  C   C382      1.0  0.08707  0.38893  0.74778  1.0000
  C  Sn129     1.0  0.06671  0.40313  0.86866  1.0000
  C  Sn130     1.0  0.04411  0.43800  0.88969  1.0000
  C   C383      1.0  0.04244  0.45778  0.78915  1.0000
  C   C384      1.0  0.06293  0.44332  0.66860  1.0000
  H   H201      1.0  0.10107  0.39774  0.55465  1.0000
  O  Te129     1.0  0.06888  0.38279  0.96734  1.0000
  O  Te130     1.0  0.01410  0.43202  0.00952  1.0000
  H   H202      1.0  0.06148  0.45881  0.59129  1.0000
  Mg  Mg65      1.0  0.02622  0.39384  0.11376  1.0000
  C   C385      1.0  0.95177  0.56086  0.59987  1.0000
  C   C386      1.0  0.97718  0.55128  0.70857  1.0000
  C  Sn131     1.0  0.97618  0.57475  0.81701  1.0000
  C  Sn132     1.0  0.94919  0.60840  0.81634  1.0000
  C   C387      1.0  0.92387  0.61773  0.70717  1.0000
  C   C388      1.0  0.92513  0.59405  0.59917  1.0000
  H   H203      1.0  0.95273  0.54253  0.51635  1.0000
  O  Te131     1.0  0.00178  0.56476  0.92477  1.0000
  O  Te132     1.0  0.94755  0.63237  0.92344  1.0000
  H   H204      1.0  0.90544  0.60146  0.51507  1.0000
  Mg  Mg66      1.0  0.97905  0.58576  0.04729  1.0000
  C   C389      1.0  0.98651  0.45496  0.65824  1.0000
  C   C390      1.0  0.98622  0.48254  0.72144  1.0000
  C  Sn133     1.0  0.96039  0.50735  0.80985  1.0000
  C  Sn134     1.0  0.93442  0.50441  0.83530  1.0000
  C   C391      1.0  0.93496  0.47671  0.77165  1.0000
  C   C392      1.0  0.96091  0.45204  0.68332  1.0000
  H   H205      1.0  0.00661  0.43587  0.58996  1.0000
  O  Te133     1.0  0.96047  0.53474  0.87211  1.0000
  O  Te134     1.0  0.90831  0.52883  0.92325  1.0000
  H   H206      1.0  0.96115  0.43068  0.63448  1.0000
  Mg  Mg67      1.0  0.91946  0.56150  0.98378  1.0000
  C   C393      1.0  0.03940  0.55477  0.70020  1.0000
  C   C394      1.0  0.04162  0.52714  0.73771  1.0000
  C  Sn135     1.0  0.06991  0.50294  0.81255  1.0000
  C  Sn136     1.0  0.09642  0.50655  0.85042  1.0000
  C   C395      1.0  0.09395  0.53430  0.81249  1.0000
  C   C396      1.0  0.06554  0.55835  0.73756  1.0000
  H   H207      1.0  0.01741  0.57339  0.64229  1.0000
  O  Te135     1.0  0.07172  0.47549  0.84915  1.0000
  O  Te136     1.0  0.12497  0.48275  0.92527  1.0000
  H   H208      1.0  0.06382  0.57975  0.70861  1.0000
  Mg  Mg68      1.0  0.11576  0.44972  0.95108  1.0000
