data_image0
_chemical_formula_structural       H144C264N24SnCSn2CSnTe4Mg2SnCSn2CSnTe4Mg2SnCSn2CSnTe4Mg2SnCSn2CSnTe4Mg2SnCSn2CSnTe4Mg2SnCSn2CSnTe4Mg2SnCSn2CSnTe4Mg2SnCSn2CSnTe4Mg2SnCSn2CSnTe4Mg2SnCSn2CSnTe4Mg2SnCSn2CSnTe4Mg2SnCSn2CSnTe4Mg2SnCSn2CSnTe4Mg2SnCSn2CSnTe4Mg2SnCSn2CSnTe4Mg2SnCSn2CSnTe4Mg2SnCSn2CSnTe4Mg2SnCSn2CSnTe4Mg2SnCSn2CSnTe4Mg2SnCSn2CSnTe4Mg2SnCSn2CSnTe4Mg2SnCSn2CSnTe4Mg2SnCSn2CSnTe4Mg2SnCSn2CSnTe4Mg2
_chemical_formula_sum              "H144 C312 N24 Sn96 Te96 Mg48"
_cell_length_a       55.6524
_cell_length_b       55.6279
_cell_length_c       8.07095
_cell_angle_alpha    75.6632
_cell_angle_beta     120.793
_cell_angle_gamma    119.959

_symmetry_space_group_name_H-M    'P1'
_space_group_IT_number       1

loop_
  _space_group_symop_operation_xyz
  'x, y, z'

loop_
  _atom_site_type_symbol
  _atom_site_label
  _atom_site_symmetry_multiplicity
  _atom_site_fract_x
  _atom_site_fract_y
  _atom_site_fract_z
  _atom_site_occupancy
  H   H1        1.0  0.44809  0.51810  0.29581  1.0000
  H   H2        1.0  0.48103  0.93064  0.26368  1.0000
  H   H3        1.0  0.06933  0.55078  0.27651  1.0000
  H   H4        1.0  0.54835  0.48214  0.24483  1.0000
  H   H5        1.0  0.51678  0.07026  0.28546  1.0000
  H   H6        1.0  0.92882  0.44700  0.27593  1.0000
  H   H7        1.0  0.40592  0.42920  0.31163  1.0000
  H   H8        1.0  0.57188  0.97665  0.28754  1.0000
  H   H9        1.0  0.02517  0.59470  0.28536  1.0000
  H   H10       1.0  0.59310  0.57094  0.24987  1.0000
  H   H11       1.0  0.42580  0.02441  0.25342  1.0000
  H   H12       1.0  0.97140  0.40233  0.24856  1.0000
  H   H13       1.0  0.43081  0.40466  0.31106  1.0000
  H   H14       1.0  0.59610  0.02629  0.28544  1.0000
  H   H15       1.0  0.97539  0.56963  0.29133  1.0000
  H   H16       1.0  0.56904  0.59637  0.26175  1.0000
  H   H17       1.0  0.40198  0.97421  0.26157  1.0000
  H   H18       1.0  0.02055  0.42661  0.24655  1.0000
  H   H19       1.0  0.51815  0.44870  0.28723  1.0000
  H   H20       1.0  0.55014  0.07053  0.26400  1.0000
  H   H21       1.0  0.93235  0.48085  0.31830  1.0000
  H   H22       1.0  0.48244  0.55329  0.28798  1.0000
  H   H23       1.0  0.45094  0.93041  0.31495  1.0000
  H   H24       1.0  0.06855  0.51545  0.27266  1.0000
  H   H25       1.0  0.70398  0.56400  0.26519  1.0000
  H   H26       1.0  0.42896  0.14167  0.17043  1.0000
  H   H27       1.0  0.84731  0.29225  0.16518  1.0000
  H   H28       1.0  0.28759  0.43306  0.19611  1.0000
  H   H29       1.0  0.55761  0.85992  0.16224  1.0000
  H   H30       1.0  0.13643  0.70273  0.21637  1.0000
  H   H31       1.0  0.49150  0.66810  0.31740  1.0000
  H   H32       1.0  0.33707  0.81924  0.33372  1.0000
  H   H33       1.0  0.18064  0.50765  0.33238  1.0000
  H   H34       1.0  0.51885  0.33335  0.35098  1.0000
  H   H35       1.0  0.66220  0.17801  0.26462  1.0000
  H   H36       1.0  0.82194  0.48587  0.30719  1.0000
  H   H37       1.0  0.74860  0.58383  0.21946  1.0000
  H   H38       1.0  0.40716  0.17022  0.15746  1.0000
  H   H39       1.0  0.82085  0.24321  0.18698  1.0000
  H   H40       1.0  0.23567  0.41156  0.16113  1.0000
  H   H41       1.0  0.58237  0.83217  0.20226  1.0000
  H   H42       1.0  0.16205  0.75143  0.18439  1.0000
  H   H43       1.0  0.79044  0.58069  0.20450  1.0000
  H   H44       1.0  0.41165  0.21626  0.18100  1.0000
  H   H45       1.0  0.77521  0.20043  0.19833  1.0000
  H   H46       1.0  0.19358  0.41331  0.18223  1.0000
  H   H47       1.0  0.58300  0.78670  0.24768  1.0000
  H   H48       1.0  0.20778  0.79468  0.18458  1.0000
  H   H49       1.0  0.70595  0.49579  0.30513  1.0000
  H   H50       1.0  0.50154  0.20864  0.23928  1.0000
  H   H51       1.0  0.78853  0.29396  0.25701  1.0000
  H   H52       1.0  0.29083  0.49960  0.25587  1.0000
  H   H53       1.0  0.49664  0.79367  0.24068  1.0000
  H   H54       1.0  0.20798  0.70277  0.26847  1.0000
  H   H55       1.0  0.73096  0.46741  0.32613  1.0000
  H   H56       1.0  0.53334  0.26010  0.28544  1.0000
  H   H57       1.0  0.73817  0.27152  0.27613  1.0000
  H   H58       1.0  0.27051  0.52695  0.30090  1.0000
  H   H59       1.0  0.47015  0.74216  0.27003  1.0000
  H   H60       1.0  0.26205  0.72659  0.30136  1.0000
  H   H61       1.0  0.77394  0.46474  0.32442  1.0000
  H   H62       1.0  0.53868  0.30558  0.32583  1.0000
  H   H63       1.0  0.69219  0.22871  0.28006  1.0000
  H   H64       1.0  0.22943  0.52883  0.33292  1.0000
  H   H65       1.0  0.46967  0.69658  0.30362  1.0000
  H   H66       1.0  0.30887  0.77014  0.32142  1.0000
  H   H67       1.0  0.81580  0.55257  0.23166  1.0000
  H   H68       1.0  0.44386  0.26744  0.23629  1.0000
  H   H69       1.0  0.72599  0.17844  0.22098  1.0000
  H   H70       1.0  0.17405  0.44058  0.24210  1.0000
  H   H71       1.0  0.55761  0.73544  0.29102  1.0000
  H   H72       1.0  0.26207  0.81859  0.22183  1.0000
  H   H73       1.0  0.44947  0.51720  0.79424  1.0000
  H   H74       1.0  0.48255  0.93165  0.75295  1.0000
  H   H75       1.0  0.07105  0.55379  0.77177  1.0000
  H   H76       1.0  0.55168  0.48448  0.74084  1.0000
  H   H77       1.0  0.52009  0.07142  0.78364  1.0000
  H   H78       1.0  0.93287  0.44649  0.78250  1.0000
  H   H79       1.0  0.40852  0.42833  0.80698  1.0000
  H   H80       1.0  0.57514  0.97665  0.80306  1.0000
  H   H81       1.0  0.02414  0.59510  0.77853  1.0000
  H   H82       1.0  0.59468  0.57338  0.75054  1.0000
  H   H83       1.0  0.42957  0.02622  0.75747  1.0000
  H   H84       1.0  0.97785  0.40500  0.74683  1.0000
  H   H85       1.0  0.43419  0.40473  0.80320  1.0000
  H   H86       1.0  0.59981  0.02638  0.80026  1.0000
  H   H87       1.0  0.97576  0.56897  0.79408  1.0000
  H   H88       1.0  0.56981  0.59755  0.76406  1.0000
  H   H89       1.0  0.40569  0.97635  0.76900  1.0000
  H   H90       1.0  0.02601  0.43056  0.73703  1.0000
  H   H91       1.0  0.52232  0.45042  0.78933  1.0000
  H   H92       1.0  0.55347  0.07154  0.76073  1.0000
  H   H93       1.0  0.93414  0.48019  0.81649  1.0000
  H   H94       1.0  0.48390  0.55263  0.79832  1.0000
  H   H95       1.0  0.45261  0.93144  0.80767  1.0000
  H   H96       1.0  0.07155  0.51963  0.76482  1.0000
  H   H97       1.0  0.70685  0.56993  0.74211  1.0000
  H   H98       1.0  0.43135  0.14228  0.67768  1.0000
  H   H99       1.0  0.85453  0.29178  0.65930  1.0000
  H   H100      1.0  0.28943  0.43372  0.69928  1.0000
  H   H101      1.0  0.55732  0.85890  0.66549  1.0000
  H   H102      1.0  0.13423  0.70569  0.69593  1.0000
  H   H103      1.0  0.48844  0.66656  0.80487  1.0000
  H   H104      1.0  0.33666  0.82140  0.83825  1.0000
  H   H105      1.0  0.18782  0.51527  0.83071  1.0000
  H   H106      1.0  0.52337  0.33451  0.85335  1.0000
  H   H107      1.0  0.66953  0.17883  0.76152  1.0000
  H   H108      1.0  0.82274  0.48776  0.80707  1.0000
  H   H109      1.0  0.75244  0.58909  0.70352  1.0000
  H   H110      1.0  0.41014  0.17156  0.67014  1.0000
  H   H111      1.0  0.82823  0.24190  0.68495  1.0000
  H   H112      1.0  0.23797  0.41394  0.67197  1.0000
  H   H113      1.0  0.58133  0.83067  0.70272  1.0000
  H   H114      1.0  0.16001  0.75463  0.66136  1.0000
  H   H115      1.0  0.79426  0.58500  0.69569  1.0000
  H   H116      1.0  0.41548  0.21769  0.69403  1.0000
  H   H117      1.0  0.78253  0.19935  0.69318  1.0000
  H   H118      1.0  0.19761  0.41800  0.69941  1.0000
  H   H119      1.0  0.58081  0.78469  0.74293  1.0000
  H   H120      1.0  0.20622  0.79790  0.66635  1.0000
  H   H121      1.0  0.70832  0.50139  0.79216  1.0000
  H   H122      1.0  0.50402  0.20875  0.74345  1.0000
  H   H123      1.0  0.79609  0.29269  0.75698  1.0000
  H   H124      1.0  0.29612  0.50174  0.76225  1.0000
  H   H125      1.0  0.49611  0.79331  0.74627  1.0000
  H   H126      1.0  0.20641  0.70582  0.75777  1.0000
  H   H127      1.0  0.73228  0.47210  0.81526  1.0000
  H   H128      1.0  0.53644  0.26013  0.78939  1.0000
  H   H129      1.0  0.74597  0.27064  0.77299  1.0000
  H   H130      1.0  0.27800  0.53101  0.81038  1.0000
  H   H131      1.0  0.46865  0.74165  0.77105  1.0000
  H   H132      1.0  0.26071  0.72944  0.79606  1.0000
  H   H133      1.0  0.77471  0.46812  0.81489  1.0000
  H   H134      1.0  0.54261  0.30605  0.82855  1.0000
  H   H135      1.0  0.69996  0.22813  0.77767  1.0000
  H   H136      1.0  0.23771  0.53521  0.83731  1.0000
  H   H137      1.0  0.46699  0.69552  0.79671  1.0000
  H   H138      1.0  0.30799  0.77269  0.82204  1.0000
  H   H139      1.0  0.81873  0.55582  0.72531  1.0000
  H   H140      1.0  0.44837  0.26898  0.74762  1.0000
  H   H141      1.0  0.73311  0.17708  0.72028  1.0000
  H   H142      1.0  0.17942  0.44733  0.74753  1.0000
  H   H143      1.0  0.55441  0.73346  0.77946  1.0000
  H   H144      1.0  0.26136  0.82172  0.71535  1.0000
  C   C1        1.0  0.47329  0.99995  0.27493  1.0000
  C   C2        1.0  0.99818  0.47267  0.27037  1.0000
  C   C3        1.0  0.52417  0.52602  0.26970  1.0000
  C   C4        1.0  0.52572  0.00059  0.28650  1.0000
  C   C5        1.0  0.99997  0.52422  0.28759  1.0000
  C   C6        1.0  0.47464  0.47481  0.29220  1.0000
  C   C7        1.0  0.47403  0.50021  0.29135  1.0000
  C   C8        1.0  0.50040  0.97457  0.28475  1.0000
  C   C9        1.0  0.02532  0.52448  0.28185  1.0000
  C   C10       1.0  0.52452  0.50058  0.26864  1.0000
  C   C11       1.0  0.49870  0.02596  0.27768  1.0000
  C   C12       1.0  0.97308  0.47236  0.27901  1.0000
  C   C13       1.0  0.49946  0.52659  0.27857  1.0000
  C   C14       1.0  0.47383  0.97426  0.28401  1.0000
  C   C15       1.0  0.02440  0.49792  0.27259  1.0000
  C   C16       1.0  0.49936  0.47431  0.28381  1.0000
  C   C17       1.0  0.52541  0.02628  0.28069  1.0000
  C   C18       1.0  0.97433  0.49889  0.29185  1.0000
  C   C19       1.0  0.44894  0.49893  0.29817  1.0000
  C   C20       1.0  0.50111  0.95031  0.27574  1.0000
  C   C21       1.0  0.05002  0.55000  0.28396  1.0000
  C   C22       1.0  0.54882  0.50145  0.25498  1.0000
  C   C23       1.0  0.49733  0.05024  0.27826  1.0000
  C   C24       1.0  0.94800  0.44693  0.27250  1.0000
  C   C25       1.0  0.42342  0.47361  0.29874  1.0000
  C   C26       1.0  0.52643  0.95001  0.27607  1.0000
  C   C27       1.0  0.05028  0.57559  0.28360  1.0000
  C   C28       1.0  0.57429  0.52648  0.25127  1.0000
  C   C29       1.0  0.47102  0.05022  0.26473  1.0000
  C   C30       1.0  0.94656  0.42101  0.26471  1.0000
  C   C31       1.0  0.42459  0.44903  0.30483  1.0000
  C   C32       1.0  0.55167  0.97546  0.28615  1.0000
  C   C33       1.0  0.02522  0.57525  0.28378  1.0000
  C   C34       1.0  0.57386  0.55122  0.25149  1.0000
  C   C35       1.0  0.44587  0.02492  0.25701  1.0000
  C   C36       1.0  0.97123  0.42148  0.25700  1.0000
  C   C37       1.0  0.44982  0.44899  0.30242  1.0000
  C   C38       1.0  0.55170  0.00078  0.28893  1.0000
  C   C39       1.0  0.00020  0.55000  0.29047  1.0000
  C   C40       1.0  0.54937  0.55163  0.26097  1.0000
  C   C41       1.0  0.44676  0.99954  0.26680  1.0000
  C   C42       1.0  0.99699  0.44673  0.25927  1.0000
  C   C43       1.0  0.45024  0.42371  0.30406  1.0000
  C   C44       1.0  0.57683  0.02637  0.28846  1.0000
  C   C45       1.0  0.97519  0.54982  0.29668  1.0000
  C   C46       1.0  0.54988  0.57702  0.26811  1.0000
  C   C47       1.0  0.42195  0.97383  0.27044  1.0000
  C   C48       1.0  0.02210  0.44653  0.25655  1.0000
  C   C49       1.0  0.47443  0.42305  0.29757  1.0000
  C   C50       1.0  0.57621  0.05128  0.27922  1.0000
  C   C51       1.0  0.95039  0.52524  0.30307  1.0000
  C   C52       1.0  0.52587  0.57766  0.27580  1.0000
  C   C53       1.0  0.42305  0.94879  0.28802  1.0000
  C   C54       1.0  0.04814  0.47093  0.26507  1.0000
  C   C55       1.0  0.49897  0.44886  0.29059  1.0000
  C   C56       1.0  0.55020  0.05078  0.27286  1.0000
  C   C57       1.0  0.95093  0.50003  0.30451  1.0000
  C   C58       1.0  0.50058  0.55224  0.27726  1.0000
  C   C59       1.0  0.44948  0.94972  0.29597  1.0000
  C   C60       1.0  0.04831  0.49639  0.26815  1.0000
  C   C61       1.0  0.70048  0.54257  0.27033  1.0000
  C   C62       1.0  0.45200  0.15939  0.19949  1.0000
  C   C63       1.0  0.83420  0.29588  0.21427  1.0000
  C   C64       1.0  0.29126  0.45404  0.20711  1.0000
  C   C65       1.0  0.54086  0.84290  0.20894  1.0000
  C   C66       1.0  0.15560  0.69944  0.23551  1.0000
  C   C67       1.0  0.72446  0.53967  0.26246  1.0000
  C   C68       1.0  0.45456  0.18682  0.19975  1.0000
  C   C69       1.0  0.80732  0.27132  0.22239  1.0000
  C   C70       1.0  0.26613  0.45577  0.20904  1.0000
  C   C71       1.0  0.53935  0.81562  0.22137  1.0000
  C   C72       1.0  0.18239  0.72425  0.22761  1.0000
  C   C73       1.0  0.51247  0.68591  0.31387  1.0000
  C   C74       1.0  0.31659  0.82235  0.29163  1.0000
  C   C75       1.0  0.17556  0.48660  0.30919  1.0000
  C   C76       1.0  0.49507  0.31617  0.30583  1.0000
  C   C77       1.0  0.68038  0.17565  0.26091  1.0000
  C   C78       1.0  0.82320  0.50673  0.28282  1.0000
  C   C79       1.0  0.74881  0.56387  0.23517  1.0000
  C   C80       1.0  0.42880  0.18905  0.18026  1.0000
  C   C81       1.0  0.80358  0.24458  0.20611  1.0000
  C   C82       1.0  0.23828  0.43119  0.18788  1.0000
  C   C83       1.0  0.56375  0.81346  0.22098  1.0000
  C   C84       1.0  0.18233  0.75054  0.20163  1.0000
  C   C85       1.0  0.77220  0.56226  0.22901  1.0000
  C   C86       1.0  0.43117  0.21446  0.19341  1.0000
  C   C87       1.0  0.77840  0.22093  0.21153  1.0000
  C   C88       1.0  0.21485  0.43209  0.19877  1.0000
  C   C89       1.0  0.56412  0.78821  0.24589  1.0000
  C   C90       1.0  0.20770  0.77462  0.20190  1.0000
  C   C91       1.0  0.77292  0.53635  0.25254  1.0000
  C   C92       1.0  0.45956  0.23913  0.22638  1.0000
  C   C93       1.0  0.75525  0.22270  0.23001  1.0000
  C   C94       1.0  0.21809  0.45761  0.23425  1.0000
  C   C95       1.0  0.53946  0.76349  0.26569  1.0000
  C   C96       1.0  0.23472  0.77391  0.22945  1.0000
  C   C97       1.0  0.74831  0.51174  0.27870  1.0000
  C   C98       1.0  0.48546  0.23705  0.24168  1.0000
  C   C99       1.0  0.75876  0.24958  0.24616  1.0000
  C   C100      1.0  0.24601  0.48260  0.25297  1.0000
  C   C101      1.0  0.51419  0.76541  0.25945  1.0000
  C   C102      1.0  0.23473  0.74734  0.25280  1.0000
  C   C103      1.0  0.72445  0.51407  0.28220  1.0000
  C   C104      1.0  0.48219  0.21076  0.22628  1.0000
  C   C105      1.0  0.78511  0.27339  0.24328  1.0000
  C   C106      1.0  0.26936  0.48101  0.23904  1.0000
  C   C107      1.0  0.51510  0.79170  0.24050  1.0000
  C   C108      1.0  0.20830  0.72301  0.25031  1.0000
  C   C109      1.0  0.74932  0.48593  0.30333  1.0000
  C   C110      1.0  0.51391  0.26166  0.27599  1.0000
  C   C111      1.0  0.73529  0.25114  0.26243  1.0000
  C   C112      1.0  0.24940  0.50819  0.28790  1.0000
  C   C113      1.0  0.48913  0.74063  0.27356  1.0000
  C   C114      1.0  0.26195  0.74661  0.28353  1.0000
  C   C115      1.0  0.77337  0.48458  0.30335  1.0000
  C   C116      1.0  0.51676  0.28689  0.29776  1.0000
  C   C117      1.0  0.70976  0.22743  0.26380  1.0000
  C   C118      1.0  0.22656  0.50915  0.30482  1.0000
  C   C119      1.0  0.48897  0.71530  0.29227  1.0000
  C   C120      1.0  0.28796  0.77083  0.29508  1.0000
  C   C121      1.0  0.79773  0.50886  0.27713  1.0000
  C   C122      1.0  0.49125  0.28911  0.28282  1.0000
  C   C123      1.0  0.70660  0.20088  0.25120  1.0000
  C   C124      1.0  0.19903  0.48452  0.28938  1.0000
  C   C125      1.0  0.51392  0.71321  0.29932  1.0000
  C   C126      1.0  0.28818  0.79718  0.27306  1.0000
  C   C127      1.0  0.79709  0.53423  0.25209  1.0000
  C   C128      1.0  0.46306  0.26536  0.24634  1.0000
  C   C129      1.0  0.72911  0.19892  0.23344  1.0000
  C   C130      1.0  0.19516  0.45925  0.25360  1.0000
  C   C131      1.0  0.53875  0.73725  0.28687  1.0000
  C   C132      1.0  0.26153  0.79831  0.23833  1.0000
  C   C133      1.0  0.47607  0.00120  0.77260  1.0000
  C   C134      1.0  0.00198  0.47465  0.76865  1.0000
  C   C135      1.0  0.52616  0.52698  0.76969  1.0000
  C   C136      1.0  0.52845  0.00142  0.78615  1.0000
  C   C137      1.0  0.00177  0.52507  0.78797  1.0000
  C   C138      1.0  0.47728  0.47508  0.79011  1.0000
  C   C139      1.0  0.47609  0.50010  0.79056  1.0000
  C   C140      1.0  0.50263  0.97555  0.78066  1.0000
  C   C141      1.0  0.02747  0.52638  0.78027  1.0000
  C   C142      1.0  0.52714  0.50192  0.76690  1.0000
  C   C143      1.0  0.50160  0.02711  0.77462  1.0000
  C   C144      1.0  0.97651  0.47329  0.77979  1.0000
  C   C145      1.0  0.50132  0.52686  0.78096  1.0000
  C   C146      1.0  0.47610  0.97533  0.77973  1.0000
  C   C147      1.0  0.02756  0.50042  0.76941  1.0000
  C   C148      1.0  0.50239  0.47525  0.78225  1.0000
  C   C149      1.0  0.52830  0.02725  0.77819  1.0000
  C   C150      1.0  0.97656  0.49928  0.79243  1.0000
  C   C151      1.0  0.45069  0.49825  0.79624  1.0000
  C   C152      1.0  0.50306  0.95119  0.77133  1.0000
  C   C153      1.0  0.05148  0.55233  0.78003  1.0000
  C   C154      1.0  0.55169  0.50352  0.75208  1.0000
  C   C155      1.0  0.50060  0.05153  0.77734  1.0000
  C   C156      1.0  0.95225  0.44735  0.77570  1.0000
  C   C157      1.0  0.42533  0.47268  0.79588  1.0000
  C   C158      1.0  0.52866  0.95057  0.77843  1.0000
  C   C159      1.0  0.05070  0.57746  0.77776  1.0000
  C   C160      1.0  0.57676  0.52899  0.74803  1.0000
  C   C161      1.0  0.47453  0.05171  0.76604  1.0000
  C   C162      1.0  0.95180  0.42201  0.76545  1.0000
  C   C163      1.0  0.42693  0.44841  0.80035  1.0000
  C   C164      1.0  0.55458  0.97579  0.79491  1.0000
  C   C165      1.0  0.02529  0.57613  0.77945  1.0000
  C   C166      1.0  0.57574  0.55331  0.75075  1.0000
  C   C167      1.0  0.44942  0.02650  0.75967  1.0000
  C   C168      1.0  0.97679  0.42360  0.75564  1.0000
  C   C169      1.0  0.45256  0.44901  0.79852  1.0000
  C   C170      1.0  0.55475  0.00130  0.79478  1.0000
  C   C171      1.0  0.00109  0.55039  0.78995  1.0000
  C   C172      1.0  0.55099  0.55293  0.76160  1.0000
  C   C173      1.0  0.44990  0.00101  0.76763  1.0000
  C   C174      1.0  0.00185  0.44935  0.75624  1.0000
  C   C175      1.0  0.45359  0.42409  0.79942  1.0000
  C   C176      1.0  0.58029  0.02681  0.79777  1.0000
  C   C177      1.0  0.97586  0.54938  0.79787  1.0000
  C   C178      1.0  0.55096  0.57794  0.77082  1.0000
  C   C179      1.0  0.42506  0.97546  0.77323  1.0000
  C   C180      1.0  0.02714  0.45020  0.74915  1.0000
  C   C181      1.0  0.47834  0.42407  0.79591  1.0000
  C   C182      1.0  0.57976  0.05193  0.78447  1.0000
  C   C183      1.0  0.95145  0.52448  0.80492  1.0000
  C   C184      1.0  0.52684  0.57789  0.78131  1.0000
  C   C185      1.0  0.42550  0.95017  0.78825  1.0000
  C   C186      1.0  0.05257  0.47518  0.75551  1.0000
  C   C187      1.0  0.50274  0.45011  0.79035  1.0000
  C   C188      1.0  0.55333  0.05164  0.77117  1.0000
  C   C189      1.0  0.95264  0.49964  0.80453  1.0000
  C   C190      1.0  0.50204  0.55216  0.78391  1.0000
  C   C191      1.0  0.45153  0.95086  0.79138  1.0000
  C   C192      1.0  0.05183  0.50007  0.76157  1.0000
  C   C193      1.0  0.70385  0.54851  0.75521  1.0000
  C   C194      1.0  0.45442  0.15993  0.70792  1.0000
  C   C195      1.0  0.84175  0.29482  0.71439  1.0000
  C   C196      1.0  0.29393  0.45510  0.70873  1.0000
  C   C197      1.0  0.54028  0.84194  0.71057  1.0000
  C   C198      1.0  0.15376  0.70252  0.71911  1.0000
  C   C199      1.0  0.72790  0.54526  0.75058  1.0000
  C   C200      1.0  0.45721  0.18746  0.70780  1.0000
  C   C201      1.0  0.81504  0.27006  0.72264  1.0000
  C   C202      1.0  0.26974  0.45795  0.71477  1.0000
  C   C203      1.0  0.53848  0.81455  0.72335  1.0000
  C   C204      1.0  0.18064  0.72738  0.71200  1.0000
  C   C205      1.0  0.50947  0.68452  0.80425  1.0000
  C   C206      1.0  0.31632  0.82508  0.79137  1.0000
  C   C207      1.0  0.18251  0.49420  0.80777  1.0000
  C   C208      1.0  0.49958  0.31736  0.81002  1.0000
  C   C209      1.0  0.68728  0.17528  0.76131  1.0000
  C   C210      1.0  0.82453  0.50884  0.77786  1.0000
  C   C211      1.0  0.75247  0.56901  0.72309  1.0000
  C   C212      1.0  0.43186  0.19013  0.69103  1.0000
  C   C213      1.0  0.81105  0.24334  0.70442  1.0000
  C   C214      1.0  0.24161  0.43405  0.69802  1.0000
  C   C215      1.0  0.56252  0.81207  0.72077  1.0000
  C   C216      1.0  0.18057  0.75373  0.68275  1.0000
  C   C217      1.0  0.77580  0.56686  0.71979  1.0000
  C   C218      1.0  0.43473  0.21573  0.70429  1.0000
  C   C219      1.0  0.78564  0.21974  0.70836  1.0000
  C   C220      1.0  0.21913  0.43618  0.71227  1.0000
  C   C221      1.0  0.56230  0.78664  0.74265  1.0000
  C   C222      1.0  0.20624  0.77779  0.68628  1.0000
  C   C223      1.0  0.77588  0.54065  0.74398  1.0000
  C   C224      1.0  0.46313  0.24017  0.73452  1.0000
  C   C225      1.0  0.76257  0.22147  0.72795  1.0000
  C   C226      1.0  0.22354  0.46235  0.74557  1.0000
  C   C227      1.0  0.53741  0.76211  0.76173  1.0000
  C   C228      1.0  0.23359  0.77701  0.71973  1.0000
  C   C229      1.0  0.75084  0.51646  0.76915  1.0000
  C   C230      1.0  0.48863  0.23767  0.74740  1.0000
  C   C231      1.0  0.76634  0.24846  0.74467  1.0000
  C   C232      1.0  0.25194  0.48662  0.76312  1.0000
  C   C233      1.0  0.51261  0.76439  0.75927  1.0000
  C   C234      1.0  0.23342  0.75034  0.74395  1.0000
  C   C235      1.0  0.72726  0.51938  0.77116  1.0000
  C   C236      1.0  0.48491  0.21117  0.73208  1.0000
  C   C237      1.0  0.79281  0.27218  0.74311  1.0000
  C   C238      1.0  0.27433  0.48372  0.74651  1.0000
  C   C239      1.0  0.51409  0.79086  0.74322  1.0000
  C   C240      1.0  0.20678  0.72606  0.73878  1.0000
  C   C241      1.0  0.75098  0.49030  0.79353  1.0000
  C   C242      1.0  0.51723  0.26206  0.78040  1.0000
  C   C243      1.0  0.74290  0.25020  0.75985  1.0000
  C   C244      1.0  0.25652  0.51280  0.79741  1.0000
  C   C245      1.0  0.48730  0.73978  0.77264  1.0000
  C   C246      1.0  0.26079  0.74953  0.77816  1.0000
  C   C247      1.0  0.77459  0.48816  0.79399  1.0000
  C   C248      1.0  0.52058  0.28752  0.80198  1.0000
  C   C249      1.0  0.71739  0.22659  0.76150  1.0000
  C   C250      1.0  0.23406  0.51510  0.81131  1.0000
  C   C251      1.0  0.48653  0.71423  0.78769  1.0000
  C   C252      1.0  0.28705  0.77363  0.79279  1.0000
  C   C253      1.0  0.79946  0.51199  0.76948  1.0000
  C   C254      1.0  0.49543  0.29014  0.78822  1.0000
  C   C255      1.0  0.71393  0.19983  0.74987  1.0000
  C   C256      1.0  0.20590  0.49117  0.79371  1.0000
  C   C257      1.0  0.51114  0.71188  0.79220  1.0000
  C   C258      1.0  0.28754  0.80013  0.77045  1.0000
  C   C259      1.0  0.79965  0.53776  0.74395  1.0000
  C   C260      1.0  0.46717  0.26659  0.75456  1.0000
  C   C261      1.0  0.73634  0.19766  0.73216  1.0000
  C   C262      1.0  0.20117  0.46534  0.76181  1.0000
  C   C263      1.0  0.53604  0.73567  0.77908  1.0000
  C   C264      1.0  0.26074  0.80139  0.73223  1.0000
  N   N1        1.0  0.67668  0.52139  0.28289  1.0000
  N   N2        1.0  0.47574  0.15594  0.24118  1.0000
  N   N3        1.0  0.84155  0.32017  0.26097  1.0000
  N   N4        1.0  0.31689  0.47598  0.22598  1.0000
  N   N5        1.0  0.52353  0.84632  0.25433  1.0000
  N   N6        1.0  0.15480  0.67510  0.26982  1.0000
  N   N7        1.0  0.53443  0.68272  0.32104  1.0000
  N   N8        1.0  0.31767  0.84671  0.26355  1.0000
  N   N9        1.0  0.15035  0.46516  0.30149  1.0000
  N   N10       1.0  0.47169  0.31946  0.27587  1.0000
  N   N11       1.0  0.67921  0.15164  0.27030  1.0000
  N   N12       1.0  0.84656  0.52830  0.26774  1.0000
  N   N13       1.0  0.68061  0.52744  0.77382  1.0000
  N   N14       1.0  0.47826  0.15649  0.75050  1.0000
  N   N15       1.0  0.84912  0.31880  0.76582  1.0000
  N   N16       1.0  0.31960  0.47650  0.72354  1.0000
  N   N17       1.0  0.52297  0.84566  0.75371  1.0000
  N   N18       1.0  0.15331  0.67839  0.75728  1.0000
  N   N19       1.0  0.53197  0.68169  0.81519  1.0000
  N   N20       1.0  0.31805  0.84969  0.76017  1.0000
  N   N21       1.0  0.15678  0.47287  0.79504  1.0000
  N   N22       1.0  0.47637  0.32082  0.78030  1.0000
  N   N23       1.0  0.68507  0.15067  0.77694  1.0000
  N   N24       1.0  0.84806  0.52968  0.76014  1.0000
  C  Sn1       1.0  0.62085  0.49685  0.28815  1.0000
  C   C265      1.0  0.64337  0.51752  0.23430  1.0000
  C  Sn2       1.0  0.64688  0.54467  0.20583  1.0000
  C  Sn3       1.0  0.62750  0.55130  0.23185  1.0000
  C   C266      1.0  0.60500  0.53063  0.28570  1.0000
  C  Sn4       1.0  0.60146  0.50347  0.31417  1.0000
  O  Te1       1.0  0.61775  0.46984  0.31584  1.0000
  O  Te2       1.0  0.66955  0.56499  0.15195  1.0000
  O  Te3       1.0  0.63062  0.57833  0.20410  1.0000
  O  Te4       1.0  0.57882  0.48317  0.36805  1.0000
  Mg  Mg1       1.0  0.66485  0.59877  0.13139  1.0000
  Mg  Mg2       1.0  0.58351  0.44938  0.38874  1.0000
  C  Sn5       1.0  0.44791  0.08998  0.06887  1.0000
  C   C267      1.0  0.47037  0.08107  0.20415  1.0000
  C  Sn6       1.0  0.49395  0.09591  0.37616  1.0000
  C  Sn7       1.0  0.49509  0.12015  0.41382  1.0000
  C   C268      1.0  0.47264  0.12904  0.27861  1.0000
  C  Sn8       1.0  0.44905  0.11421  0.10653  1.0000
  O  Te5       1.0  0.49956  0.07637  0.89788  1.0000
  O  Te6       1.0  0.51615  0.08661  0.50918  1.0000
  O  Te7       1.0  0.51848  0.13531  0.58498  1.0000
  O  Te8       1.0  0.50188  0.12505  0.97359  1.0000
  Mg  Mg3       1.0  0.54341  0.11432  0.72128  1.0000
  Mg  Mg4       1.0  0.47460  0.09736  0.76149  1.0000
  C  Sn9       1.0  0.89431  0.38926  0.34375  1.0000
  C   C269      1.0  0.91947  0.39351  0.32159  1.0000
  C  Sn10      1.0  0.91805  0.37239  0.24758  1.0000
  C  Sn11      1.0  0.89092  0.34647  0.19449  1.0000
  C   C270      1.0  0.86578  0.34223  0.21662  1.0000
  C  Sn12      1.0  0.86717  0.36335  0.29066  1.0000
  O  Te9       1.0  0.89624  0.41068  0.41803  1.0000
  O  Te10      1.0  0.94351  0.37713  0.22681  1.0000
  O  Te11      1.0  0.88901  0.32505  0.12017  1.0000
  O  Te12      1.0  0.84174  0.35862  0.31140  1.0000
  Mg  Mg5       1.0  0.92972  0.34153  0.11895  1.0000
  Mg  Mg6       1.0  0.85549  0.39420  0.41915  1.0000
  C  Sn13      1.0  0.35765  0.45344  0.12922  1.0000
  C   C271      1.0  0.38876  0.47344  0.21943  1.0000
  C  Sn14      1.0  0.39761  0.49345  0.34149  1.0000
  C  Sn15      1.0  0.37488  0.49346  0.37417  1.0000
  C   C272      1.0  0.34379  0.47346  0.28402  1.0000
  C  Sn16      1.0  0.33492  0.45345  0.16190  1.0000
  O  Te13      1.0  0.34933  0.43363  0.00777  1.0000
  O  Te14      1.0  0.42886  0.51325  0.43000  1.0000
  O  Te15      1.0  0.38322  0.51329  0.49573  1.0000
  O  Te16      1.0  0.30369  0.43366  0.07345  1.0000
  Mg  Mg7       1.0  0.42870  0.53595  0.58322  1.0000
  Mg  Mg8       1.0  0.37884  0.41249  0.92029  1.0000
  C  Sn17      1.0  0.50495  0.89156  0.33135  1.0000
  C   C273      1.0  0.52617  0.91868  0.31793  1.0000
  C  Sn18      1.0  0.54712  0.92361  0.25253  1.0000
  C  Sn19      1.0  0.54682  0.90096  0.19931  1.0000
  C   C274      1.0  0.52560  0.87387  0.21271  1.0000
  C  Sn20      1.0  0.50465  0.86892  0.27813  1.0000
  O  Te17      1.0  0.48422  0.88712  0.39710  1.0000
  O  Te18      1.0  0.56813  0.95090  0.24041  1.0000
  O  Te19      1.0  0.56758  0.90543  0.13352  1.0000
  O  Te20      1.0  0.48365  0.84165  0.29022  1.0000
  Mg  Mg9       1.0  0.59175  0.94633  0.14226  1.0000
  Mg  Mg10      1.0  0.46000  0.84619  0.38826  1.0000
  C  Sn21      1.0  0.07565  0.62606  0.10604  1.0000
  C   C275      1.0  0.07654  0.60343  0.22783  1.0000
  C  Sn22      1.0  0.10449  0.60569  0.39020  1.0000
  C  Sn23      1.0  0.13212  0.63111  0.43180  1.0000
  C   C276      1.0  0.13122  0.65372  0.31007  1.0000
  C  Sn24      1.0  0.10328  0.65148  0.14764  1.0000
  O  Te21      1.0  0.12247  0.62487  0.94452  1.0000
  O  Te22      1.0  0.10480  0.58278  0.50979  1.0000
  O  Te23      1.0  0.16032  0.63382  0.59347  1.0000
  O  Te24      1.0  0.10296  0.67437  0.02812  1.0000
  Mg  Mg11      1.0  0.14890  0.59675  0.71272  1.0000
  Mg  Mg12      1.0  0.13389  0.66198  0.82521  1.0000
  C  Sn25      1.0  0.49755  0.62564  0.22773  1.0000
  C   C277      1.0  0.52381  0.64920  0.33452  1.0000
  C  Sn26      1.0  0.55383  0.65164  0.41022  1.0000
  C  Sn27      1.0  0.55767  0.63011  0.37844  1.0000
  C   C278      1.0  0.53142  0.60657  0.27169  1.0000
  C  Sn28      1.0  0.50139  0.60410  0.19595  1.0000
  O  Te25      1.0  0.46776  0.62364  0.15340  1.0000
  O  Te26      1.0  0.57973  0.67539  0.51656  1.0000
  O  Te27      1.0  0.58749  0.63213  0.45288  1.0000
  O  Te28      1.0  0.47550  0.58038  0.08964  1.0000
  Mg  Mg13      1.0  0.61552  0.66851  0.58814  1.0000
  Mg  Mg14      1.0  0.43971  0.58725  0.01792  1.0000
  C  Sn29      1.0  0.34765  0.90330  0.25401  1.0000
  C   C279      1.0  0.34125  0.87662  0.22346  1.0000
  C  Sn30      1.0  0.36487  0.87143  0.24617  1.0000
  C  Sn31      1.0  0.39554  0.89336  0.30067  1.0000
  C   C280      1.0  0.40193  0.92001  0.33123  1.0000
  C  Sn32      1.0  0.37832  0.92522  0.30852  1.0000
  O  Te29      1.0  0.32368  0.90801  0.23049  1.0000
  O  Te30      1.0  0.35791  0.84459  0.21476  1.0000
  O  Te31      1.0  0.41952  0.88862  0.32418  1.0000
  O  Te32      1.0  0.38527  0.95204  0.33993  1.0000
  Mg  Mg15      1.0  0.39847  0.84854  0.26505  1.0000
  Mg  Mg16      1.0  0.34474  0.94812  0.28978  1.0000
  C  Sn33      1.0  0.12177  0.49740  0.26747  1.0000
  C   C281      1.0  0.13080  0.47606  0.33697  1.0000
  C  Sn34      1.0  0.11041  0.44975  0.36905  1.0000
  C  Sn35      1.0  0.08037  0.44464  0.33075  1.0000
  C   C282      1.0  0.07135  0.46596  0.26126  1.0000
  C  Sn36      1.0  0.09172  0.49229  0.22917  1.0000
  O  Te33      1.0  0.14252  0.52354  0.23645  1.0000
  O  Te34      1.0  0.11997  0.42875  0.43865  1.0000
  O  Te35      1.0  0.05962  0.41846  0.36184  1.0000
  O  Te36      1.0  0.08218  0.51328  0.15958  1.0000
  Mg  Mg17      1.0  0.08336  0.39659  0.45780  1.0000
  Mg  Mg18      1.0  0.11876  0.54543  0.14029  1.0000
  C  Sn37      1.0  0.50554  0.37786  0.33217  1.0000
  C   C283      1.0  0.48374  0.35074  0.33958  1.0000
  C  Sn38      1.0  0.45442  0.34541  0.30902  1.0000
  C  Sn39      1.0  0.44673  0.36764  0.27012  1.0000
  C   C284      1.0  0.46851  0.39474  0.26268  1.0000
  C  Sn40      1.0  0.49784  0.40009  0.29326  1.0000
  O  Te37      1.0  0.53470  0.38270  0.36315  1.0000
  O  Te38      1.0  0.43302  0.31812  0.31723  1.0000
  O  Te39      1.0  0.41753  0.36277  0.23913  1.0000
  O  Te40      1.0  0.51923  0.42736  0.28504  1.0000
  Mg  Mg19      1.0  0.39631  0.32205  0.26503  1.0000
  Mg  Mg20      1.0  0.55595  0.42346  0.33712  1.0000
  C  Sn41      1.0  0.61586  0.12272  0.17896  1.0000
  C   C285      1.0  0.64773  0.12966  0.28504  1.0000
  C  Sn42      1.0  0.65757  0.10918  0.38181  1.0000
  C  Sn43      1.0  0.63509  0.08119  0.37226  1.0000
  C   C286      1.0  0.60324  0.07426  0.26620  1.0000
  C  Sn44      1.0  0.59338  0.09472  0.16940  1.0000
  O  Te41      1.0  0.60656  0.14352  0.08335  1.0000
  O  Te42      1.0  0.68956  0.11663  0.48700  1.0000
  O  Te43      1.0  0.64442  0.06038  0.46799  1.0000
  O  Te44      1.0  0.56141  0.08729  0.06424  1.0000
  Mg  Mg21      1.0  0.69064  0.08084  0.59245  1.0000
  Mg  Mg22      1.0  0.63532  0.12461  0.95865  1.0000
  C  Sn45      1.0  0.87484  0.49693  0.27799  1.0000
  C   C287      1.0  0.87326  0.51859  0.32355  1.0000
  C  Sn46      1.0  0.89674  0.54575  0.34269  1.0000
  C  Sn47      1.0  0.92232  0.55138  0.31561  1.0000
  C   C288      1.0  0.92389  0.52973  0.27005  1.0000
  C  Sn48      1.0  0.90042  0.50256  0.25092  1.0000
  O  Te45      1.0  0.85110  0.46993  0.25956  1.0000
  O  Te46      1.0  0.89466  0.56706  0.38837  1.0000
  O  Te47      1.0  0.94607  0.57841  0.33409  1.0000
  O  Te48      1.0  0.90249  0.48126  0.20523  1.0000
  Mg  Mg23      1.0  0.93277  0.60041  0.39787  1.0000
  Mg  Mg24      1.0  0.86439  0.44791  0.19560  1.0000
  C  Sn49      1.0  0.65058  0.55843  0.74807  1.0000
  C   C289      1.0  0.66039  0.53761  0.81112  1.0000
  C  Sn50      1.0  0.64030  0.51054  0.83506  1.0000
  C  Sn51      1.0  0.60974  0.50413  0.79504  1.0000
  C   C290      1.0  0.59994  0.52493  0.73201  1.0000
  C  Sn52      1.0  0.62003  0.55202  0.70805  1.0000
  O  Te49      1.0  0.67106  0.58535  0.72513  1.0000
  O  Te50      1.0  0.65064  0.49008  0.89831  1.0000
  O  Te51      1.0  0.58926  0.47718  0.81804  1.0000
  O  Te52      1.0  0.60970  0.57246  0.64481  1.0000
  Mg  Mg25      1.0  0.61412  0.45649  0.90746  1.0000
  Mg  Mg26      1.0  0.64618  0.60606  0.63552  1.0000
  C  Sn53      1.0  0.45077  0.09105  0.57531  1.0000
  C   C291      1.0  0.47369  0.08246  0.70693  1.0000
  C  Sn54      1.0  0.49751  0.09729  0.87862  1.0000
  C  Sn55      1.0  0.49844  0.12119  0.91968  1.0000
  C   C292      1.0  0.47553  0.12976  0.78813  1.0000
  C  Sn56      1.0  0.45169  0.11494  0.61638  1.0000
  O  Te53      1.0  0.42716  0.07590  0.40457  1.0000
  O  Te54      1.0  0.44516  0.08677  0.00794  1.0000
  O  Te55      1.0  0.44705  0.13478  0.09059  1.0000
  O  Te56      1.0  0.42904  0.12390  0.48712  1.0000
  Mg  Mg27      1.0  0.47260  0.11431  0.22121  1.0000
  Mg  Mg28      1.0  0.40158  0.09637  0.27387  1.0000
  C  Sn57      1.0  0.87632  0.37504  0.73291  1.0000
  C   C293      1.0  0.87119  0.34848  0.71106  1.0000
  C  Sn58      1.0  0.89535  0.34421  0.73277  1.0000
  C  Sn59      1.0  0.92527  0.36698  0.77738  1.0000
  C   C294      1.0  0.93039  0.39352  0.79924  1.0000
  C  Sn60      1.0  0.90624  0.39781  0.77752  1.0000
  O  Te57      1.0  0.85183  0.37882  0.71057  1.0000
  O  Te58      1.0  0.88966  0.31746  0.71017  1.0000
  O  Te59      1.0  0.94977  0.36318  0.79971  1.0000
  O  Te60      1.0  0.91192  0.42454  0.80013  1.0000
  Mg  Mg29      1.0  0.93050  0.32284  0.75489  1.0000
  Mg  Mg30      1.0  0.87111  0.41918  0.75554  1.0000
  C  Sn61      1.0  0.34672  0.44515  0.71876  1.0000
  C   C295      1.0  0.34513  0.46601  0.77394  1.0000
  C  Sn62      1.0  0.37029  0.49253  0.82211  1.0000
  C  Sn63      1.0  0.39761  0.49831  0.81487  1.0000
  C   C296      1.0  0.39919  0.47746  0.75969  1.0000
  C  Sn64      1.0  0.37404  0.45093  0.71152  1.0000
  O  Te61      1.0  0.32129  0.41879  0.67120  1.0000
  O  Te62      1.0  0.36816  0.51305  0.87691  1.0000
  O  Te63      1.0  0.42306  0.52470  0.86249  1.0000
  O  Te64      1.0  0.37617  0.43042  0.65672  1.0000
  Mg  Mg31      1.0  0.40896  0.54573  0.92825  1.0000
  Mg  Mg32      1.0  0.33538  0.39774  0.60525  1.0000
  C  Sn65      1.0  0.49537  0.87724  0.71250  1.0000
  C   C297      1.0  0.51691  0.87275  0.69937  1.0000
  C  Sn66      1.0  0.54663  0.89435  0.73755  1.0000
  C  Sn67      1.0  0.55501  0.92099  0.79009  1.0000
  C   C298      1.0  0.53347  0.92546  0.80323  1.0000
  C  Sn68      1.0  0.50374  0.90388  0.76503  1.0000
  O  Te65      1.0  0.46578  0.85534  0.67370  1.0000
  O  Te66      1.0  0.56777  0.88937  0.72341  1.0000
  O  Te67      1.0  0.58462  0.94289  0.82889  1.0000
  O  Te68      1.0  0.48262  0.90885  0.77918  1.0000
  Mg  Mg33      1.0  0.60526  0.92582  0.79038  1.0000
  Mg  Mg34      1.0  0.44513  0.87241  0.71235  1.0000
  C  Sn69      1.0  0.07450  0.62822  0.59682  1.0000
  C   C299      1.0  0.07608  0.60574  0.71887  1.0000
  C  Sn70      1.0  0.10432  0.60847  0.87997  1.0000
  C  Sn71      1.0  0.13155  0.63420  0.92001  1.0000
  C   C300      1.0  0.12997  0.65667  0.79802  1.0000
  C  Sn72      1.0  0.10173  0.65396  0.63686  1.0000
  O  Te69      1.0  0.04602  0.62503  0.43659  1.0000
  O  Te70      1.0  0.10532  0.58569  0.99984  1.0000
  O  Te71      1.0  0.08503  0.63583  0.08039  1.0000
  O  Te72      1.0  0.10072  0.67672  0.51705  1.0000
  Mg  Mg35      1.0  0.07456  0.59878  0.20064  1.0000
  Mg  Mg36      1.0  0.05648  0.66211  0.31628  1.0000
  C  Sn73      1.0  0.49637  0.62447  0.72513  1.0000
  C   C301      1.0  0.52207  0.64839  0.83034  1.0000
  C  Sn74      1.0  0.55243  0.65150  0.90941  1.0000
  C  Sn75      1.0  0.55721  0.63026  0.88267  1.0000
  C   C302      1.0  0.53151  0.60635  0.77749  1.0000
  C  Sn76      1.0  0.50114  0.60323  0.69839  1.0000
  O  Te73      1.0  0.46622  0.62181  0.64737  1.0000
  O  Te74      1.0  0.50275  0.67405  0.01409  1.0000
  O  Te75      1.0  0.58738  0.63294  0.96054  1.0000
  O  Te76      1.0  0.47582  0.57915  0.59375  1.0000
  Mg  Mg37      1.0  0.53934  0.66804  0.09175  1.0000
  Mg  Mg38      1.0  0.43922  0.58514  0.51594  1.0000
  C  Sn77      1.0  0.34978  0.90618  0.75224  1.0000
  C   C303      1.0  0.34273  0.87915  0.72424  1.0000
  C  Sn78      1.0  0.36596  0.87313  0.74992  1.0000
  C  Sn79      1.0  0.39690  0.89456  0.80485  1.0000
  C   C304      1.0  0.40393  0.92156  0.83285  1.0000
  C  Sn80      1.0  0.38071  0.92760  0.80717  1.0000
  O  Te77      1.0  0.32618  0.91173  0.72578  1.0000
  O  Te78      1.0  0.35835  0.84596  0.72103  1.0000
  O  Te79      1.0  0.42049  0.88898  0.83130  1.0000
  O  Te80      1.0  0.38831  0.95475  0.83607  1.0000
  Mg  Mg39      1.0  0.39859  0.84873  0.77488  1.0000
  Mg  Mg40      1.0  0.34809  0.95200  0.78236  1.0000
  C  Sn81      1.0  0.10105  0.44739  0.80170  1.0000
  C   C305      1.0  0.12328  0.46824  0.74624  1.0000
  C  Sn82      1.0  0.12616  0.49519  0.71516  1.0000
  C  Sn83      1.0  0.10642  0.50144  0.74015  1.0000
  C   C306      1.0  0.08420  0.48060  0.79560  1.0000
  C  Sn84      1.0  0.08131  0.45364  0.82668  1.0000
  O  Te81      1.0  0.09858  0.42060  0.83199  1.0000
  O  Te82      1.0  0.14855  0.51569  0.65972  1.0000
  O  Te83      1.0  0.10890  0.52827  0.70980  1.0000
  O  Te84      1.0  0.05893  0.43316  0.88212  1.0000
  Mg  Mg41      1.0  0.14297  0.54907  0.63574  1.0000
  Mg  Mg42      1.0  0.06451  0.39977  0.90624  1.0000
  C  Sn85      1.0  0.44837  0.35107  0.75131  1.0000
  C   C307      1.0  0.46997  0.34718  0.73438  1.0000
  C  Sn86      1.0  0.49911  0.36932  0.76564  1.0000
  C  Sn87      1.0  0.50684  0.39591  0.81495  1.0000
  C   C308      1.0  0.48525  0.39979  0.83188  1.0000
  C  Sn88      1.0  0.45610  0.37766  0.80062  1.0000
  O  Te85      1.0  0.41937  0.32864  0.71943  1.0000
  O  Te86      1.0  0.52031  0.36492  0.74782  1.0000
  O  Te87      1.0  0.53587  0.41835  0.84682  1.0000
  O  Te88      1.0  0.43491  0.38204  0.81845  1.0000
  Mg  Mg43      1.0  0.55686  0.40197  0.80547  1.0000
  Mg  Mg44      1.0  0.39837  0.34501  0.76093  1.0000
  C  Sn89      1.0  0.64451  0.08986  0.95648  1.0000
  C   C309      1.0  0.61273  0.08288  0.84115  1.0000
  C  Sn90      1.0  0.60279  0.09741  0.67194  1.0000
  C  Sn91      1.0  0.62508  0.11937  0.61677  1.0000
  C   C310      1.0  0.65684  0.12634  0.73204  1.0000
  C  Sn92      1.0  0.66680  0.11182  0.90131  1.0000
  O  Te89      1.0  0.57891  0.07349  0.12504  1.0000
  O  Te90      1.0  0.57089  0.09006  0.55902  1.0000
  O  Te91      1.0  0.61564  0.13419  0.44806  1.0000
  O  Te92      1.0  0.62366  0.11760  0.01417  1.0000
  Mg  Mg45      1.0  0.56961  0.11640  0.34224  1.0000
  Mg  Mg46      1.0  0.62497  0.09127  0.23092  1.0000
  C  Sn93      1.0  0.87590  0.49698  0.78187  1.0000
  C   C311      1.0  0.87448  0.51913  0.82225  1.0000
  C  Sn94      1.0  0.89818  0.54612  0.83948  1.0000
  C  Sn95      1.0  0.92384  0.55108  0.81574  1.0000
  C   C312      1.0  0.92525  0.52894  0.77536  1.0000
  C  Sn96      1.0  0.90155  0.50194  0.75813  1.0000
  O  Te93      1.0  0.85194  0.47017  0.76527  1.0000
  O  Te94      1.0  0.89625  0.56792  0.87997  1.0000
  O  Te95      1.0  0.94781  0.57792  0.83239  1.0000
  O  Te96      1.0  0.90348  0.48015  0.71763  1.0000
  Mg  Mg47      1.0  0.93465  0.60078  0.88880  1.0000
  Mg  Mg48      1.0  0.86508  0.44729  0.70868  1.0000
