data_image0
_chemical_formula_structural       H168C336N24C2Sn2C2HTe2HMgC2Sn2C2HTe2HMgC2Sn2C2HTe2HMgC2Sn2C2HTe2HMgC2Sn2C2HTe2HMgC2Sn2C2HTe2HMgC2Sn2C2HTe2HMgC2Sn2C2HTe2HMgC2Sn2C2HTe2HMgC2Sn2C2HTe2HMgC2Sn2C2HTe2HMgC2Sn2C2HTe2HMgC2Sn2C2HTe2HMgC2Sn2C2HTe2HMgC2Sn2C2HTe2HMgC2Sn2C2HTe2HMgC2Sn2C2HTe2HMgC2Sn2C2HTe2HMgC2Sn2C2HTe2HMgC2Sn2C2HTe2HMgC2Sn2C2HTe2HMgC2Sn2C2HTe2HMgC2Sn2C2HTe2HMgC2Sn2C2HTe2HMg
_chemical_formula_sum              "H216 C432 N24 Sn48 Te48 Mg24"
_cell_length_a       60.0949
_cell_length_b       60.0892
_cell_length_c       8.03927
_cell_angle_alpha    59.4316
_cell_angle_beta     103.49
_cell_angle_gamma    120.04

_symmetry_space_group_name_H-M    'P1'
_space_group_IT_number       1

loop_
  _space_group_symop_operation_xyz
  'x, y, z'

loop_
  _atom_site_type_symbol
  _atom_site_label
  _atom_site_symmetry_multiplicity
  _atom_site_fract_x
  _atom_site_fract_y
  _atom_site_fract_z
  _atom_site_occupancy
  H   H1        1.0  0.48440  0.54820  0.30950  1.0000
  H   H2        1.0  0.44827  0.93392  0.29669  1.0000
  H   H3        1.0  0.06226  0.51307  0.27997  1.0000
  H   H4        1.0  0.51264  0.44974  0.28820  1.0000
  H   H5        1.0  0.54694  0.06351  0.28851  1.0000
  H   H6        1.0  0.93348  0.48063  0.31319  1.0000
  H   H7        1.0  0.56671  0.58596  0.31066  1.0000
  H   H8        1.0  0.40863  0.97588  0.31012  1.0000
  H   H9        1.0  0.01875  0.42749  0.33174  1.0000
  H   H10       1.0  0.43057  0.41405  0.25785  1.0000
  H   H11       1.0  0.58545  0.02287  0.24515  1.0000
  H   H12       1.0  0.97657  0.56707  0.25200  1.0000
  H   H13       1.0  0.58839  0.56052  0.32314  1.0000
  H   H14       1.0  0.43252  0.02203  0.31432  1.0000
  H   H15       1.0  0.97227  0.40552  0.32813  1.0000
  H   H16       1.0  0.40921  0.43850  0.25887  1.0000
  H   H17       1.0  0.56127  0.97625  0.25020  1.0000
  H   H18       1.0  0.02321  0.58986  0.24957  1.0000
  H   H19       1.0  0.54524  0.47902  0.31278  1.0000
  H   H20       1.0  0.51495  0.06465  0.27827  1.0000
  H   H21       1.0  0.93278  0.45223  0.26646  1.0000
  H   H22       1.0  0.45238  0.51871  0.29150  1.0000
  H   H23       1.0  0.47894  0.93533  0.26340  1.0000
  H   H24       1.0  0.06298  0.54503  0.28790  1.0000
  H   H25       1.0  0.68516  0.54793  0.30436  1.0000
  H   H26       1.0  0.44508  0.13834  0.25348  1.0000
  H   H27       1.0  0.86357  0.31365  0.18969  1.0000
  H   H28       1.0  0.30963  0.45346  0.19491  1.0000
  H   H29       1.0  0.55233  0.86376  0.29818  1.0000
  H   H30       1.0  0.13347  0.68719  0.25899  1.0000
  H   H31       1.0  0.68134  0.48699  0.25173  1.0000
  H   H32       1.0  0.51006  0.19767  0.27162  1.0000
  H   H33       1.0  0.80394  0.31460  0.24959  1.0000
  H   H34       1.0  0.31264  0.51143  0.27384  1.0000
  H   H35       1.0  0.48779  0.80284  0.29435  1.0000
  H   H36       1.0  0.19427  0.68402  0.24816  1.0000
  H   H37       1.0  0.73009  0.56516  0.30413  1.0000
  H   H38       1.0  0.42842  0.16801  0.22607  1.0000
  H   H39       1.0  0.83504  0.26728  0.20337  1.0000
  H   H40       1.0  0.26410  0.43366  0.21728  1.0000
  H   H41       1.0  0.56998  0.83856  0.27088  1.0000
  H   H42       1.0  0.16141  0.73219  0.26265  1.0000
  H   H43       1.0  0.49384  0.65719  0.29639  1.0000
  H   H44       1.0  0.34129  0.83818  0.20176  1.0000
  H   H45       1.0  0.16122  0.50766  0.26418  1.0000
  H   H46       1.0  0.50522  0.33978  0.33381  1.0000
  H   H47       1.0  0.65488  0.15938  0.33169  1.0000
  H   H48       1.0  0.83147  0.49050  0.25252  1.0000
  H   H49       1.0  0.47563  0.68495  0.28589  1.0000
  H   H50       1.0  0.31363  0.79236  0.20432  1.0000
  H   H51       1.0  0.20752  0.52621  0.26251  1.0000
  H   H52       1.0  0.52330  0.31266  0.32717  1.0000
  H   H53       1.0  0.68362  0.20596  0.32321  1.0000
  H   H54       1.0  0.78648  0.47347  0.24568  1.0000
  H   H55       1.0  0.55779  0.72195  0.24586  1.0000
  H   H56       1.0  0.28046  0.83746  0.25702  1.0000
  H   H57       1.0  0.15883  0.44596  0.23680  1.0000
  H   H58       1.0  0.44176  0.28316  0.27611  1.0000
  H   H59       1.0  0.71515  0.15849  0.28354  1.0000
  H   H60       1.0  0.83501  0.55114  0.30434  1.0000
  H   H61       1.0  0.77745  0.58425  0.31056  1.0000
  H   H62       1.0  0.40894  0.19592  0.22472  1.0000
  H   H63       1.0  0.80637  0.21887  0.22089  1.0000
  H   H64       1.0  0.21666  0.41486  0.20644  1.0000
  H   H65       1.0  0.59005  0.81278  0.24771  1.0000
  H   H66       1.0  0.18933  0.77891  0.27133  1.0000
  H   H67       1.0  0.81577  0.57872  0.31609  1.0000
  H   H68       1.0  0.41377  0.23802  0.24332  1.0000
  H   H69       1.0  0.76256  0.17896  0.25176  1.0000
  H   H70       1.0  0.17826  0.41958  0.21053  1.0000
  H   H71       1.0  0.58560  0.77033  0.23663  1.0000
  H   H72       1.0  0.23290  0.81762  0.26714  1.0000
  H   H73       1.0  0.70086  0.46113  0.21839  1.0000
  H   H74       1.0  0.53822  0.24343  0.29895  1.0000
  H   H75       1.0  0.75631  0.29408  0.28146  1.0000
  H   H76       1.0  0.29334  0.53976  0.27494  1.0000
  H   H77       1.0  0.45990  0.75455  0.30056  1.0000
  H   H78       1.0  0.24208  0.70456  0.22968  1.0000
  H   H79       1.0  0.73922  0.45587  0.22050  1.0000
  H   H80       1.0  0.54304  0.28526  0.32027  1.0000
  H   H81       1.0  0.71255  0.25419  0.31353  1.0000
  H   H82       1.0  0.25503  0.54520  0.27048  1.0000
  H   H83       1.0  0.45545  0.71164  0.29640  1.0000
  H   H84       1.0  0.28558  0.74431  0.21033  1.0000
  H   H85       1.0  0.48602  0.54715  0.81004  1.0000
  H   H86       1.0  0.45259  0.93693  0.77822  1.0000
  H   H87       1.0  0.06705  0.51601  0.77474  1.0000
  H   H88       1.0  0.51866  0.45143  0.78715  1.0000
  H   H89       1.0  0.55173  0.06472  0.79238  1.0000
  H   H90       1.0  0.93818  0.48358  0.82084  1.0000
  H   H91       1.0  0.56842  0.58722  0.80959  1.0000
  H   H92       1.0  0.41400  0.97713  0.83076  1.0000
  H   H93       1.0  0.02293  0.43017  0.83108  1.0000
  H   H94       1.0  0.43670  0.41481  0.74185  1.0000
  H   H95       1.0  0.59025  0.02363  0.75601  1.0000
  H   H96       1.0  0.98178  0.57072  0.74636  1.0000
  H   H97       1.0  0.59143  0.56392  0.81277  1.0000
  H   H98       1.0  0.43793  0.02297  0.83062  1.0000
  H   H99       1.0  0.97666  0.40862  0.82644  1.0000
  H   H100      1.0  0.41400  0.43729  0.74830  1.0000
  H   H101      1.0  0.56600  0.97776  0.75025  1.0000
  H   H102      1.0  0.02810  0.59298  0.74836  1.0000
  H   H103      1.0  0.55086  0.48202  0.80823  1.0000
  H   H104      1.0  0.52014  0.06698  0.77045  1.0000
  H   H105      1.0  0.93750  0.45554  0.76693  1.0000
  H   H106      1.0  0.45442  0.51612  0.79902  1.0000
  H   H107      1.0  0.48365  0.93748  0.75478  1.0000
  H   H108      1.0  0.06791  0.54759  0.79683  1.0000
  H   H109      1.0  0.69167  0.55801  0.78165  1.0000
  H   H110      1.0  0.44601  0.13728  0.74132  1.0000
  H   H111      1.0  0.86789  0.31608  0.69752  1.0000
  H   H112      1.0  0.31068  0.44507  0.71479  1.0000
  H   H113      1.0  0.55754  0.86569  0.79660  1.0000
  H   H114      1.0  0.13591  0.69107  0.76530  1.0000
  H   H115      1.0  0.68851  0.49625  0.74722  1.0000
  H   H116      1.0  0.51006  0.19468  0.77456  1.0000
  H   H117      1.0  0.80761  0.31712  0.74639  1.0000
  H   H118      1.0  0.31407  0.50547  0.76422  1.0000
  H   H119      1.0  0.49277  0.80511  0.79842  1.0000
  H   H120      1.0  0.19678  0.68919  0.74545  1.0000
  H   H121      1.0  0.73744  0.57542  0.78672  1.0000
  H   H122      1.0  0.42880  0.16740  0.72288  1.0000
  H   H123      1.0  0.83982  0.27038  0.70484  1.0000
  H   H124      1.0  0.26480  0.42592  0.73099  1.0000
  H   H125      1.0  0.57470  0.83997  0.76497  1.0000
  H   H126      1.0  0.16394  0.73684  0.76727  1.0000
  H   H127      1.0  0.49508  0.65850  0.78704  1.0000
  H   H128      1.0  0.34368  0.84235  0.69892  1.0000
  H   H129      1.0  0.16475  0.50399  0.76116  1.0000
  H   H130      1.0  0.51045  0.34008  0.82355  1.0000
  H   H131      1.0  0.65995  0.15959  0.85384  1.0000
  H   H132      1.0  0.83719  0.49722  0.75896  1.0000
  H   H133      1.0  0.47786  0.68704  0.77658  1.0000
  H   H134      1.0  0.31606  0.79641  0.71074  1.0000
  H   H135      1.0  0.20951  0.52062  0.76151  1.0000
  H   H136      1.0  0.52701  0.31126  0.82544  1.0000
  H   H137      1.0  0.68823  0.20623  0.83851  1.0000
  H   H138      1.0  0.79308  0.48206  0.74168  1.0000
  H   H139      1.0  0.55984  0.72219  0.74063  1.0000
  H   H140      1.0  0.28327  0.84290  0.74964  1.0000
  H   H141      1.0  0.16016  0.44066  0.73283  1.0000
  H   H142      1.0  0.44579  0.28407  0.77321  1.0000
  H   H143      1.0  0.72058  0.15980  0.79435  1.0000
  H   H144      1.0  0.84208  0.55926  0.80515  1.0000
  H   H145      1.0  0.78487  0.59343  0.80441  1.0000
  H   H146      1.0  0.41047  0.19659  0.72025  1.0000
  H   H147      1.0  0.81156  0.22204  0.71855  1.0000
  H   H148      1.0  0.21739  0.40760  0.71949  1.0000
  H   H149      1.0  0.59386  0.81332  0.74356  1.0000
  H   H150      1.0  0.19197  0.78444  0.76418  1.0000
  H   H151      1.0  0.82296  0.58733  0.81424  1.0000
  H   H152      1.0  0.41668  0.23904  0.74110  1.0000
  H   H153      1.0  0.76813  0.18147  0.75441  1.0000
  H   H154      1.0  0.17930  0.41331  0.71598  1.0000
  H   H155      1.0  0.58848  0.77055  0.73104  1.0000
  H   H156      1.0  0.23558  0.82341  0.75576  1.0000
  H   H157      1.0  0.70768  0.47013  0.71536  1.0000
  H   H158      1.0  0.53920  0.23981  0.80565  1.0000
  H   H159      1.0  0.75997  0.29552  0.78472  1.0000
  H   H160      1.0  0.29504  0.53367  0.77180  1.0000
  H   H161      1.0  0.46400  0.75718  0.80009  1.0000
  H   H162      1.0  0.24441  0.70968  0.72451  1.0000
  H   H163      1.0  0.74593  0.46451  0.71912  1.0000
  H   H164      1.0  0.54535  0.28233  0.82610  1.0000
  H   H165      1.0  0.71659  0.25487  0.82295  1.0000
  H   H166      1.0  0.25693  0.53931  0.76862  1.0000
  H   H167      1.0  0.45863  0.71424  0.79020  1.0000
  H   H168      1.0  0.28802  0.74897  0.71116  1.0000
  C   C1        1.0  0.47353  0.99899  0.29390  1.0000
  C   C2        1.0  0.99700  0.47257  0.30199  1.0000
  C   C3        1.0  0.52281  0.52185  0.30364  1.0000
  C   C4        1.0  0.52052  0.99974  0.26730  1.0000
  C   C5        1.0  0.99834  0.52257  0.27501  1.0000
  C   C6        1.0  0.47437  0.47704  0.28181  1.0000
  C   C7        1.0  0.47491  0.50058  0.28818  1.0000
  C   C8        1.0  0.49667  0.97567  0.27300  1.0000
  C   C9        1.0  0.02194  0.52194  0.28097  1.0000
  C   C10       1.0  0.52218  0.49789  0.30230  1.0000
  C   C11       1.0  0.49739  0.02314  0.28751  1.0000
  C   C12       1.0  0.97341  0.47338  0.29313  1.0000
  C   C13       1.0  0.49985  0.52368  0.29919  1.0000
  C   C14       1.0  0.47255  0.97514  0.28911  1.0000
  C   C15       1.0  0.02127  0.49645  0.29241  1.0000
  C   C16       1.0  0.49731  0.47517  0.28708  1.0000
  C   C17       1.0  0.52162  0.02351  0.27473  1.0000
  C   C18       1.0  0.97408  0.49865  0.28538  1.0000
  C   C19       1.0  0.50183  0.54732  0.30495  1.0000
  C   C20       1.0  0.44873  0.95207  0.29836  1.0000
  C   C21       1.0  0.04357  0.49493  0.29124  1.0000
  C   C22       1.0  0.49531  0.45146  0.28219  1.0000
  C   C23       1.0  0.54564  0.04594  0.27316  1.0000
  C   C24       1.0  0.95175  0.49961  0.29346  1.0000
  C   C25       1.0  0.52565  0.57035  0.30831  1.0000
  C   C26       1.0  0.42509  0.95155  0.30342  1.0000
  C   C27       1.0  0.04312  0.47012  0.30878  1.0000
  C   C28       1.0  0.47147  0.42858  0.27706  1.0000
  C   C29       1.0  0.56895  0.04590  0.26612  1.0000
  C   C30       1.0  0.95178  0.52390  0.28200  1.0000
  C   C31       1.0  0.54793  0.56856  0.31138  1.0000
  C   C32       1.0  0.42618  0.97508  0.30662  1.0000
  C   C33       1.0  0.01952  0.44647  0.32421  1.0000
  C   C34       1.0  0.44921  0.43072  0.26830  1.0000
  C   C35       1.0  0.56780  0.02294  0.25649  1.0000
  C   C36       1.0  0.97551  0.54774  0.26335  1.0000
  C   C37       1.0  0.54713  0.54467  0.31097  1.0000
  C   C38       1.0  0.44991  0.99880  0.30377  1.0000
  C   C39       1.0  0.99620  0.44742  0.31642  1.0000
  C   C40       1.0  0.45008  0.45453  0.27089  1.0000
  C   C41       1.0  0.54399  0.99974  0.25624  1.0000
  C   C42       1.0  0.99893  0.54751  0.26276  1.0000
  C   C43       1.0  0.57008  0.54319  0.31572  1.0000
  C   C44       1.0  0.45067  0.02278  0.30452  1.0000
  C   C45       1.0  0.97221  0.42438  0.31547  1.0000
  C   C46       1.0  0.42720  0.45591  0.26863  1.0000
  C   C47       1.0  0.54315  0.97608  0.25207  1.0000
  C   C48       1.0  0.02296  0.57126  0.25498  1.0000
  C   C49       1.0  0.56938  0.51942  0.32102  1.0000
  C   C50       1.0  0.47385  0.04660  0.29506  1.0000
  C   C51       1.0  0.94928  0.42600  0.29312  1.0000
  C   C52       1.0  0.42750  0.47856  0.27796  1.0000
  C   C53       1.0  0.51996  0.95258  0.25883  1.0000
  C   C54       1.0  0.04586  0.57022  0.26642  1.0000
  C   C55       1.0  0.54523  0.49692  0.31534  1.0000
  C   C56       1.0  0.49688  0.04592  0.28863  1.0000
  C   C57       1.0  0.95050  0.45068  0.28464  1.0000
  C   C58       1.0  0.45180  0.50089  0.28451  1.0000
  C   C59       1.0  0.49700  0.95324  0.26552  1.0000
  C   C60       1.0  0.04486  0.54533  0.28026  1.0000
  C   C61       1.0  0.68108  0.52800  0.30309  1.0000
  C   C62       1.0  0.46529  0.15446  0.24582  1.0000
  C   C63       1.0  0.84798  0.31593  0.21795  1.0000
  C   C64       1.0  0.31312  0.46926  0.24152  1.0000
  C   C65       1.0  0.53233  0.84824  0.29288  1.0000
  C   C66       1.0  0.14948  0.68315  0.26015  1.0000
  C   C67       1.0  0.70339  0.52607  0.28051  1.0000
  C   C68       1.0  0.46903  0.18028  0.24807  1.0000
  C   C69       1.0  0.82200  0.29334  0.22498  1.0000
  C   C70       1.0  0.29068  0.47226  0.24688  1.0000
  C   C71       1.0  0.52905  0.82319  0.28309  1.0000
  C   C72       1.0  0.17535  0.70581  0.25558  1.0000
  C   C73       1.0  0.70062  0.50294  0.26028  1.0000
  C   C74       1.0  0.49358  0.20101  0.26395  1.0000
  C   C75       1.0  0.80055  0.29544  0.24401  1.0000
  C   C76       1.0  0.29339  0.49581  0.26144  1.0000
  C   C77       1.0  0.50453  0.80097  0.28545  1.0000
  C   C78       1.0  0.19713  0.70327  0.24988  1.0000
  C   C79       1.0  0.72216  0.50040  0.25054  1.0000
  C   C80       1.0  0.49674  0.22503  0.27373  1.0000
  C   C81       1.0  0.77562  0.27326  0.25959  1.0000
  C   C82       1.0  0.27192  0.49923  0.25924  1.0000
  C   C83       1.0  0.50161  0.77666  0.28082  1.0000
  C   C84       1.0  0.22193  0.72520  0.24315  1.0000
  C   C85       1.0  0.74732  0.52166  0.26351  1.0000
  C   C86       1.0  0.47463  0.22867  0.26570  1.0000
  C   C87       1.0  0.77201  0.24785  0.25937  1.0000
  C   C88       1.0  0.24679  0.47794  0.24684  1.0000
  C   C89       1.0  0.52401  0.77476  0.26988  1.0000
  C   C90       1.0  0.22499  0.75030  0.24499  1.0000
  C   C91       1.0  0.75020  0.54570  0.27846  1.0000
  C   C92       1.0  0.44968  0.20778  0.24785  1.0000
  C   C93       1.0  0.79380  0.24573  0.23919  1.0000
  C   C94       1.0  0.24396  0.45372  0.23476  1.0000
  C   C95       1.0  0.54900  0.79760  0.26444  1.0000
  C   C96       1.0  0.20282  0.75266  0.25413  1.0000
  C   C97       1.0  0.72810  0.54752  0.28538  1.0000
  C   C98       1.0  0.44740  0.18391  0.24036  1.0000
  C   C99       1.0  0.81842  0.26870  0.22066  1.0000
  C   C100      1.0  0.26605  0.45157  0.23236  1.0000
  C   C101      1.0  0.55100  0.82129  0.27228  1.0000
  C   C102      1.0  0.17836  0.73042  0.25677  1.0000
  C   C103      1.0  0.51364  0.67484  0.27253  1.0000
  C   C104      1.0  0.32534  0.83938  0.23558  1.0000
  C   C105      1.0  0.15801  0.48774  0.26716  1.0000
  C   C106      1.0  0.48550  0.32491  0.31685  1.0000
  C   C107      1.0  0.67092  0.15695  0.31197  1.0000
  C   C108      1.0  0.83550  0.50891  0.27317  1.0000
  C   C109      1.0  0.51656  0.70094  0.26539  1.0000
  C   C110      1.0  0.29959  0.81718  0.23156  1.0000
  C   C111      1.0  0.18083  0.48600  0.25252  1.0000
  C   C112      1.0  0.48267  0.30040  0.30214  1.0000
  C   C113      1.0  0.69684  0.17978  0.30514  1.0000
  C   C114      1.0  0.81308  0.51214  0.27487  1.0000
  C   C115      1.0  0.49460  0.70276  0.27673  1.0000
  C   C116      1.0  0.29662  0.79337  0.21896  1.0000
  C   C117      1.0  0.20546  0.50771  0.25460  1.0000
  C   C118      1.0  0.50442  0.29701  0.30916  1.0000
  C   C119      1.0  0.70033  0.20440  0.30936  1.0000
  C   C120      1.0  0.78849  0.49160  0.25831  1.0000
  C   C121      1.0  0.49652  0.72704  0.27626  1.0000
  C   C122      1.0  0.27219  0.77075  0.22594  1.0000
  C   C123      1.0  0.22759  0.50544  0.25378  1.0000
  C   C124      1.0  0.50230  0.27357  0.29662  1.0000
  C   C125      1.0  0.72501  0.22717  0.29535  1.0000
  C   C126      1.0  0.76647  0.49434  0.25342  1.0000
  C   C127      1.0  0.52147  0.75020  0.26631  1.0000
  C   C128      1.0  0.24996  0.77270  0.23951  1.0000
  C   C129      1.0  0.22477  0.48089  0.24627  1.0000
  C   C130      1.0  0.47741  0.25281  0.27640  1.0000
  C   C131      1.0  0.74685  0.22497  0.27711  1.0000
  C   C132      1.0  0.76932  0.51861  0.26520  1.0000
  C   C133      1.0  0.54389  0.74837  0.25472  1.0000
  C   C134      1.0  0.25297  0.79740  0.24671  1.0000
  C   C135      1.0  0.19963  0.45935  0.23651  1.0000
  C   C136      1.0  0.45524  0.25634  0.26833  1.0000
  C   C137      1.0  0.74329  0.19967  0.27555  1.0000
  C   C138      1.0  0.79441  0.53941  0.28403  1.0000
  C   C139      1.0  0.54104  0.72388  0.25352  1.0000
  C   C140      1.0  0.27771  0.81897  0.24542  1.0000
  C   C141      1.0  0.17813  0.46215  0.24203  1.0000
  C   C142      1.0  0.45830  0.28007  0.28095  1.0000
  C   C143      1.0  0.71838  0.17760  0.28895  1.0000
  C   C144      1.0  0.81580  0.53578  0.28856  1.0000
  C   C145      1.0  0.77555  0.56644  0.29452  1.0000
  C   C146      1.0  0.42782  0.21185  0.23975  1.0000
  C   C147      1.0  0.78970  0.22013  0.23855  1.0000
  C   C148      1.0  0.21861  0.43278  0.22131  1.0000
  C   C149      1.0  0.57112  0.79528  0.25219  1.0000
  C   C150      1.0  0.20634  0.77763  0.26071  1.0000
  C   C151      1.0  0.79672  0.56336  0.29799  1.0000
  C   C152      1.0  0.43048  0.23513  0.24912  1.0000
  C   C153      1.0  0.76552  0.19805  0.25620  1.0000
  C   C154      1.0  0.19737  0.43544  0.22264  1.0000
  C   C155      1.0  0.56869  0.77180  0.24692  1.0000
  C   C156      1.0  0.23037  0.79902  0.25797  1.0000
  C   C157      1.0  0.71996  0.47673  0.23358  1.0000
  C   C158      1.0  0.52150  0.24630  0.29295  1.0000
  C   C159      1.0  0.75337  0.27488  0.27867  1.0000
  C   C160      1.0  0.27418  0.52365  0.26621  1.0000
  C   C161      1.0  0.47682  0.75316  0.28947  1.0000
  C   C162      1.0  0.24457  0.72358  0.23271  1.0000
  C   C163      1.0  0.74115  0.47375  0.23571  1.0000
  C   C164      1.0  0.52415  0.26946  0.30400  1.0000
  C   C165      1.0  0.72917  0.25279  0.29644  1.0000
  C   C166      1.0  0.25300  0.52673  0.26257  1.0000
  C   C167      1.0  0.47440  0.72939  0.28808  1.0000
  C   C168      1.0  0.26860  0.74554  0.22222  1.0000
  C   C169      1.0  0.47855  0.00086  0.79282  1.0000
  C   C170      1.0  0.00168  0.47541  0.80518  1.0000
  C   C171      1.0  0.52609  0.52243  0.80661  1.0000
  C   C172      1.0  0.52530  0.00142  0.76520  1.0000
  C   C173      1.0  0.00321  0.52545  0.77804  1.0000
  C   C174      1.0  0.47872  0.47693  0.78100  1.0000
  C   C175      1.0  0.47824  0.49977  0.79067  1.0000
  C   C176      1.0  0.50138  0.97762  0.76722  1.0000
  C   C177      1.0  0.02683  0.52471  0.78491  1.0000
  C   C178      1.0  0.52644  0.49905  0.80367  1.0000
  C   C179      1.0  0.50242  0.02504  0.78484  1.0000
  C   C180      1.0  0.97808  0.47627  0.79699  1.0000
  C   C181      1.0  0.50266  0.52336  0.80295  1.0000
  C   C182      1.0  0.47730  0.97721  0.78326  1.0000
  C   C183      1.0  0.02608  0.49925  0.79456  1.0000
  C   C184      1.0  0.50210  0.47585  0.78711  1.0000
  C   C185      1.0  0.52649  0.02516  0.77320  1.0000
  C   C186      1.0  0.97882  0.50158  0.78927  1.0000
  C   C187      1.0  0.50381  0.54674  0.80787  1.0000
  C   C188      1.0  0.45333  0.95456  0.78898  1.0000
  C   C189      1.0  0.04831  0.49776  0.78885  1.0000
  C   C190      1.0  0.50100  0.45267  0.77958  1.0000
  C   C191      1.0  0.55049  0.04725  0.77619  1.0000
  C   C192      1.0  0.95652  0.50268  0.79762  1.0000
  C   C193      1.0  0.52724  0.57022  0.81140  1.0000
  C   C194      1.0  0.42988  0.95385  0.80288  1.0000
  C   C195      1.0  0.04765  0.47285  0.80584  1.0000
  C   C196      1.0  0.47758  0.42983  0.76868  1.0000
  C   C197      1.0  0.57375  0.04688  0.77415  1.0000
  C   C198      1.0  0.95672  0.52731  0.78243  1.0000
  C   C199      1.0  0.54993  0.56931  0.81274  1.0000
  C   C200      1.0  0.43130  0.97674  0.81596  1.0000
  C   C201      1.0  0.02389  0.44925  0.82339  1.0000
  C   C202      1.0  0.45495  0.43137  0.75786  1.0000
  C   C203      1.0  0.57260  0.02396  0.76373  1.0000
  C   C204      1.0  0.98055  0.55110  0.76152  1.0000
  C   C205      1.0  0.54996  0.54593  0.81134  1.0000
  C   C206      1.0  0.45511  0.00044  0.80930  1.0000
  C   C207      1.0  0.00068  0.45028  0.81760  1.0000
  C   C208      1.0  0.45492  0.45437  0.76498  1.0000
  C   C209      1.0  0.54878  0.00120  0.75754  1.0000
  C   C210      1.0  0.00388  0.55054  0.76364  1.0000
  C   C211      1.0  0.57344  0.54591  0.80971  1.0000
  C   C212      1.0  0.45595  0.02409  0.81380  1.0000
  C   C213      1.0  0.97661  0.42733  0.81640  1.0000
  C   C214      1.0  0.43152  0.45480  0.76173  1.0000
  C   C215      1.0  0.54789  0.97772  0.75079  1.0000
  C   C216      1.0  0.02788  0.57427  0.75568  1.0000
  C   C217      1.0  0.57372  0.52283  0.81232  1.0000
  C   C218      1.0  0.47913  0.04814  0.79866  1.0000
  C   C219      1.0  0.95372  0.42898  0.79507  1.0000
  C   C220      1.0  0.43078  0.47651  0.77609  1.0000
  C   C221      1.0  0.52469  0.95453  0.75326  1.0000
  C   C222      1.0  0.05078  0.57308  0.77012  1.0000
  C   C223      1.0  0.55005  0.49941  0.81216  1.0000
  C   C224      1.0  0.50210  0.04794  0.78563  1.0000
  C   C225      1.0  0.95511  0.45373  0.78706  1.0000
  C   C226      1.0  0.45463  0.49899  0.78773  1.0000
  C   C227      1.0  0.50170  0.95526  0.75881  1.0000
  C   C228      1.0  0.04978  0.54804  0.78625  1.0000
  C   C229      1.0  0.68810  0.53808  0.78283  1.0000
  C   C230      1.0  0.46598  0.15317  0.74320  1.0000
  C   C231      1.0  0.85222  0.31857  0.72252  1.0000
  C   C232      1.0  0.31424  0.46199  0.75028  1.0000
  C   C233      1.0  0.53755  0.85040  0.78853  1.0000
  C   C234      1.0  0.15222  0.68744  0.76713  1.0000
  C   C235      1.0  0.71068  0.53589  0.76887  1.0000
  C   C236      1.0  0.46931  0.17865  0.74712  1.0000
  C   C237      1.0  0.82629  0.29613  0.72536  1.0000
  C   C238      1.0  0.29177  0.46535  0.74992  1.0000
  C   C239      1.0  0.53393  0.82504  0.78127  1.0000
  C   C240      1.0  0.17792  0.71059  0.75885  1.0000
  C   C241      1.0  0.70782  0.51220  0.75520  1.0000
  C   C242      1.0  0.49401  0.19875  0.76581  1.0000
  C   C243      1.0  0.80458  0.29803  0.74163  1.0000
  C   C244      1.0  0.29469  0.48959  0.75657  1.0000
  C   C245      1.0  0.50916  0.80290  0.78688  1.0000
  C   C246      1.0  0.19969  0.70831  0.74943  1.0000
  C   C247      1.0  0.72922  0.50916  0.75063  1.0000
  C   C248      1.0  0.49785  0.22290  0.77642  1.0000
  C   C249      1.0  0.77977  0.27563  0.75669  1.0000
  C   C250      1.0  0.27336  0.49323  0.75421  1.0000
  C   C251      1.0  0.50570  0.77853  0.78038  1.0000
  C   C252      1.0  0.22446  0.73020  0.74230  1.0000
  C   C253      1.0  0.75439  0.53024  0.76518  1.0000
  C   C254      1.0  0.47615  0.22724  0.76735  1.0000
  C   C255      1.0  0.77649  0.25038  0.75588  1.0000
  C   C256      1.0  0.24811  0.47189  0.74397  1.0000
  C   C257      1.0  0.52778  0.77629  0.76678  1.0000
  C   C258      1.0  0.22752  0.75523  0.74513  1.0000
  C   C259      1.0  0.75739  0.55465  0.77581  1.0000
  C   C260      1.0  0.45093  0.20690  0.74749  1.0000
  C   C261      1.0  0.79851  0.24860  0.73622  1.0000
  C   C262      1.0  0.24507  0.44719  0.73735  1.0000
  C   C263      1.0  0.55299  0.79884  0.76067  1.0000
  C   C264      1.0  0.20537  0.75764  0.75405  1.0000
  C   C265      1.0  0.73537  0.55719  0.77511  1.0000
  C   C266      1.0  0.44799  0.18286  0.73853  1.0000
  C   C267      1.0  0.82302  0.27164  0.72038  1.0000
  C   C268      1.0  0.26704  0.44446  0.73937  1.0000
  C   C269      1.0  0.55555  0.82279  0.76851  1.0000
  C   C270      1.0  0.18089  0.73521  0.75961  1.0000
  C   C271      1.0  0.51510  0.67558  0.76710  1.0000
  C   C272      1.0  0.32804  0.84367  0.73597  1.0000
  C   C273      1.0  0.16027  0.48359  0.76481  1.0000
  C   C274      1.0  0.49048  0.32530  0.81003  1.0000
  C   C275      1.0  0.67584  0.15734  0.82956  1.0000
  C   C276      1.0  0.84192  0.51634  0.77363  1.0000
  C   C277      1.0  0.51866  0.70200  0.75915  1.0000
  C   C278      1.0  0.30217  0.82180  0.73186  1.0000
  C   C279      1.0  0.18244  0.48068  0.74991  1.0000
  C   C280      1.0  0.48666  0.30009  0.79994  1.0000
  C   C281      1.0  0.70178  0.18065  0.81630  1.0000
  C   C282      1.0  0.81989  0.52031  0.77467  1.0000
  C   C283      1.0  0.49702  0.70447  0.76927  1.0000
  C   C284      1.0  0.29911  0.79774  0.72237  1.0000
  C   C285      1.0  0.20729  0.50214  0.75223  1.0000
  C   C286      1.0  0.50789  0.29585  0.80850  1.0000
  C   C287      1.0  0.70502  0.20529  0.81895  1.0000
  C   C288      1.0  0.79518  0.49995  0.75788  1.0000
  C   C289      1.0  0.49951  0.72885  0.77054  1.0000
  C   C290      1.0  0.27465  0.77534  0.72800  1.0000
  C   C291      1.0  0.22927  0.49976  0.75000  1.0000
  C   C292      1.0  0.50492  0.27189  0.79839  1.0000
  C   C293      1.0  0.72949  0.22868  0.79842  1.0000
  C   C294      1.0  0.77325  0.50267  0.75539  1.0000
  C   C295      1.0  0.52470  0.75163  0.76160  1.0000
  C   C296      1.0  0.25251  0.77759  0.73957  1.0000
  C   C297      1.0  0.22620  0.47510  0.74255  1.0000
  C   C298      1.0  0.47970  0.25162  0.77840  1.0000
  C   C299      1.0  0.75149  0.22711  0.77588  1.0000
  C   C300      1.0  0.77630  0.52692  0.76843  1.0000
  C   C301      1.0  0.54677  0.74928  0.74945  1.0000
  C   C302      1.0  0.25562  0.80255  0.74359  1.0000
  C   C303      1.0  0.20091  0.45365  0.73415  1.0000
  C   C304      1.0  0.45801  0.25598  0.76975  1.0000
  C   C305      1.0  0.74827  0.20175  0.77694  1.0000
  C   C306      1.0  0.80148  0.54772  0.78571  1.0000
  C   C307      1.0  0.54335  0.72455  0.74808  1.0000
  C   C308      1.0  0.28042  0.82410  0.74175  1.0000
  C   C309      1.0  0.17949  0.45675  0.73891  1.0000
  C   C310      1.0  0.46188  0.28011  0.78081  1.0000
  C   C311      1.0  0.72349  0.17905  0.79633  1.0000
  C   C312      1.0  0.82283  0.54399  0.78908  1.0000
  C   C313      1.0  0.78280  0.57530  0.79165  1.0000
  C   C314      1.0  0.42957  0.21189  0.73817  1.0000
  C   C315      1.0  0.79475  0.22307  0.73626  1.0000
  C   C316      1.0  0.21958  0.42612  0.72766  1.0000
  C   C317      1.0  0.57477  0.79605  0.74761  1.0000
  C   C318      1.0  0.20898  0.78294  0.75628  1.0000
  C   C319      1.0  0.80386  0.57185  0.79790  1.0000
  C   C320      1.0  0.43295  0.23535  0.74883  1.0000
  C   C321      1.0  0.77073  0.20061  0.75634  1.0000
  C   C322      1.0  0.19849  0.42930  0.72527  1.0000
  C   C323      1.0  0.57181  0.77238  0.74185  1.0000
  C   C324      1.0  0.23304  0.80447  0.75125  1.0000
  C   C325      1.0  0.72678  0.48537  0.73392  1.0000
  C   C326      1.0  0.52291  0.24347  0.79772  1.0000
  C   C327      1.0  0.75732  0.27662  0.77934  1.0000
  C   C328      1.0  0.27586  0.51772  0.76177  1.0000
  C   C329      1.0  0.48066  0.75540  0.78821  1.0000
  C   C330      1.0  0.24701  0.72854  0.73047  1.0000
  C   C331      1.0  0.74790  0.48228  0.73604  1.0000
  C   C332      1.0  0.52629  0.26696  0.80802  1.0000
  C   C333      1.0  0.73330  0.25410  0.80038  1.0000
  C   C334      1.0  0.25476  0.52088  0.75936  1.0000
  C   C335      1.0  0.47772  0.73168  0.78343  1.0000
  C   C336      1.0  0.27105  0.75024  0.72287  1.0000
  N   N1        1.0  0.65793  0.50734  0.32626  1.0000
  N   N2        1.0  0.48426  0.15030  0.24271  1.0000
  N   N3        1.0  0.85179  0.33665  0.24942  1.0000
  N   N4        1.0  0.33559  0.48471  0.28623  1.0000
  N   N5        1.0  0.51298  0.85172  0.29720  1.0000
  N   N6        1.0  0.14556  0.65935  0.27004  1.0000
  N   N7        1.0  0.53312  0.67216  0.26012  1.0000
  N   N8        1.0  0.32856  0.85875  0.27941  1.0000
  N   N9        1.0  0.13533  0.46638  0.28978  1.0000
  N   N10       1.0  0.46587  0.32854  0.31214  1.0000
  N   N11       1.0  0.66721  0.13492  0.29734  1.0000
  N   N12       1.0  0.85842  0.52700  0.29203  1.0000
  N   N13       1.0  0.66522  0.51717  0.80260  1.0000
  N   N14       1.0  0.48561  0.14945  0.74887  1.0000
  N   N15       1.0  0.85603  0.33935  0.75340  1.0000
  N   N16       1.0  0.33674  0.47845  0.78797  1.0000
  N   N17       1.0  0.51825  0.85433  0.78679  1.0000
  N   N18       1.0  0.14895  0.66369  0.78035  1.0000
  N   N19       1.0  0.53432  0.67212  0.75972  1.0000
  N   N20       1.0  0.33180  0.86296  0.78264  1.0000
  N   N21       1.0  0.13698  0.46321  0.78854  1.0000
  N   N22       1.0  0.47125  0.32957  0.80427  1.0000
  N   N23       1.0  0.67188  0.13527  0.81453  1.0000
  N   N24       1.0  0.86518  0.53428  0.78793  1.0000
  C   C337      1.0  0.59725  0.48590  0.46814  1.0000
  C   C338      1.0  0.59339  0.51064  0.36976  1.0000
  C  Sn1       1.0  0.61203  0.53685  0.23748  1.0000
  C  Sn2       1.0  0.63493  0.53825  0.20331  1.0000
  C   C339      1.0  0.63860  0.51338  0.30236  1.0000
  C   C340      1.0  0.61983  0.48726  0.43447  1.0000
  H   H169      1.0  0.58272  0.46568  0.57028  1.0000
  O  Te1       1.0  0.60787  0.56136  0.14049  1.0000
  O  Te2       1.0  0.65387  0.56417  0.07182  1.0000
  H   H170      1.0  0.62282  0.46810  0.51052  1.0000
  Mg  Mg1       1.0  0.63554  0.52174  0.97518  1.0000
  C   C341      1.0  0.45373  0.09961  0.18493  1.0000
  C   C342      1.0  0.47307  0.11903  0.24903  1.0000
  C  Sn3       1.0  0.49531  0.11598  0.32744  1.0000
  C  Sn4       1.0  0.49819  0.09304  0.34169  1.0000
  C   C343      1.0  0.47874  0.07373  0.27702  1.0000
  C   C344      1.0  0.45656  0.07698  0.19887  1.0000
  H   H171      1.0  0.43658  0.10213  0.12436  1.0000
  O  Te3       1.0  0.51443  0.13557  0.39085  1.0000
  O  Te4       1.0  0.52022  0.08949  0.41938  1.0000
  H   H172      1.0  0.44160  0.06195  0.14913  1.0000
  Mg  Mg2       1.0  0.54093  0.12173  0.48608  1.0000
  C   C345      1.0  0.91968  0.37395  0.24871  1.0000
  C   C346      1.0  0.92443  0.39847  0.25912  1.0000
  C  Sn5       1.0  0.90401  0.40188  0.27912  1.0000
  C  Sn6       1.0  0.87838  0.38031  0.28890  1.0000
  C   C347      1.0  0.87383  0.35584  0.27850  1.0000
  C   C348      1.0  0.89441  0.35265  0.25842  1.0000
  H   H173      1.0  0.93561  0.37147  0.23328  1.0000
  O  Te5       1.0  0.90910  0.42652  0.28923  1.0000
  O  Te6       1.0  0.85761  0.38317  0.30896  1.0000
  H   H174      1.0  0.89073  0.33365  0.25049  1.0000
  Mg  Mg3       1.0  0.87436  0.42062  0.31634  1.0000
  C   C349      1.0  0.40057  0.50645  0.29021  1.0000
  C   C350      1.0  0.40405  0.48473  0.29622  1.0000
  C  Sn7       1.0  0.38290  0.46042  0.28820  1.0000
  C  Sn8       1.0  0.35782  0.45787  0.27385  1.0000
  C   C351      1.0  0.35455  0.47973  0.26780  1.0000
  C   C352      1.0  0.37585  0.50395  0.27598  1.0000
  H   H175      1.0  0.41705  0.52520  0.29643  1.0000
  O  Te7       1.0  0.38671  0.43892  0.29444  1.0000
  O  Te8       1.0  0.33635  0.43382  0.26552  1.0000
  H   H176      1.0  0.37315  0.52077  0.27120  1.0000
  Mg  Mg4       1.0  0.35140  0.41024  0.27883  1.0000
  C   C353      1.0  0.54203  0.91205  0.19650  1.0000
  C   C354      1.0  0.52325  0.88311  0.28357  1.0000
  C  Sn9       1.0  0.50082  0.87568  0.36454  1.0000
  C  Sn10      1.0  0.49716  0.89768  0.35794  1.0000
  C   C355      1.0  0.51605  0.92657  0.27038  1.0000
  C   C356      1.0  0.53843  0.93376  0.18986  1.0000
  H   H177      1.0  0.55934  0.91762  0.13410  1.0000
  O  Te9       1.0  0.48226  0.84665  0.45104  1.0000
  O  Te10      1.0  0.47491  0.89086  0.43768  1.0000
  H   H178      1.0  0.55295  0.95617  0.12234  1.0000
  Mg  Mg5       1.0  0.45519  0.84820  0.53973  1.0000
  C   C357      1.0  0.09713  0.58945  0.40663  1.0000
  C   C358      1.0  0.07535  0.59172  0.30696  1.0000
  C  Sn11      1.0  0.07681  0.61894  0.17282  1.0000
  C  Sn12      1.0  0.10055  0.64431  0.13811  1.0000
  C   C359      1.0  0.12224  0.64181  0.23847  1.0000
  C   C360      1.0  0.12056  0.61446  0.37242  1.0000
  H   H179      1.0  0.09584  0.56829  0.51020  1.0000
  O  Te11      1.0  0.05486  0.62081  0.07455  1.0000
  O  Te12      1.0  0.10255  0.67179  0.00477  1.0000
  H   H180      1.0  0.13743  0.61271  0.44948  1.0000
  Mg  Mg6       1.0  0.06346  0.59319  0.90689  1.0000
  C   C361      1.0  0.50254  0.60704  0.22480  1.0000
  C   C362      1.0  0.52165  0.59812  0.27329  1.0000
  C  Sn13      1.0  0.54545  0.61340  0.33491  1.0000
  C  Sn14      1.0  0.55015  0.63806  0.34814  1.0000
  C   C363      1.0  0.53090  0.64679  0.29943  1.0000
  C   C364      1.0  0.50715  0.63135  0.23788  1.0000
  H   H181      1.0  0.48416  0.59508  0.17728  1.0000
  O  Te13      1.0  0.56434  0.60420  0.38272  1.0000
  O  Te14      1.0  0.57377  0.65372  0.40937  1.0000
  H   H182      1.0  0.49235  0.63824  0.20047  1.0000
  Mg  Mg7       1.0  0.59342  0.63267  0.45853  1.0000
  C   C365      1.0  0.39637  0.89758  0.27806  1.0000
  C   C366      1.0  0.40056  0.92218  0.28467  1.0000
  C  Sn15      1.0  0.37981  0.92493  0.30661  1.0000
  C  Sn16      1.0  0.35442  0.90259  0.32223  1.0000
  C   C367      1.0  0.35043  0.87805  0.31559  1.0000
  C   C368      1.0  0.37134  0.87553  0.29353  1.0000
  H   H183      1.0  0.41255  0.89562  0.26110  1.0000
  O  Te15      1.0  0.38433  0.94966  0.31287  1.0000
  O  Te16      1.0  0.33333  0.90478  0.34433  1.0000
  H   H184      1.0  0.36809  0.85647  0.28854  1.0000
  Mg  Mg8       1.0  0.34933  0.94265  0.34481  1.0000
  C   C369      1.0  0.08723  0.44074  0.45234  1.0000
  C   C370      1.0  0.10803  0.46153  0.32062  1.0000
  C  Sn17      1.0  0.10893  0.48829  0.18144  1.0000
  C  Sn18      1.0  0.08860  0.49429  0.17439  1.0000
  C   C371      1.0  0.06788  0.47335  0.30691  1.0000
  C   C372      1.0  0.06718  0.44664  0.44554  1.0000
  H   H185      1.0  0.08669  0.42008  0.55968  1.0000
  O  Te17      1.0  0.12984  0.50881  0.05088  1.0000
  O  Te18      1.0  0.08901  0.52086  0.03682  1.0000
  H   H186      1.0  0.05108  0.43055  0.54759  1.0000
  Mg  Mg9       1.0  0.11785  0.47189  0.89007  1.0000
  C   C373      1.0  0.44490  0.36803  0.37199  1.0000
  C   C374      1.0  0.46541  0.39589  0.31694  1.0000
  C  Sn19      1.0  0.48834  0.40331  0.24274  1.0000
  C  Sn20      1.0  0.49072  0.38239  0.22341  1.0000
  C   C375      1.0  0.47009  0.35458  0.27877  1.0000
  C   C376      1.0  0.44723  0.34739  0.35291  1.0000
  H   H187      1.0  0.42721  0.36247  0.42926  1.0000
  O  Te19      1.0  0.50865  0.43124  0.18850  1.0000
  O  Te20      1.0  0.51342  0.38922  0.14960  1.0000
  H   H188      1.0  0.43135  0.32582  0.39540  1.0000
  Mg  Mg10      1.0  0.53570  0.43016  0.09568  1.0000
  C   C377      1.0  0.60221  0.10611  0.17427  1.0000
  C   C378      1.0  0.59503  0.07685  0.24142  1.0000
  C  Sn21      1.0  0.61219  0.06550  0.34614  1.0000
  C  Sn22      1.0  0.63698  0.08384  0.38416  1.0000
  C   C379      1.0  0.64397  0.11308  0.31646  1.0000
  C   C380      1.0  0.62665  0.12421  0.21176  1.0000
  H   H189      1.0  0.58881  0.11473  0.09335  1.0000
  O  Te21      1.0  0.60471  0.03622  0.41211  1.0000
  O  Te22      1.0  0.65450  0.07306  0.48853  1.0000
  H   H190      1.0  0.63221  0.14687  0.15989  1.0000
  Mg  Mg11      1.0  0.63537  0.03167  0.54795  1.0000
  C   C381      1.0  0.91098  0.54861  0.31790  1.0000
  C   C382      1.0  0.88620  0.53138  0.27939  1.0000
  C  Sn23      1.0  0.88148  0.50818  0.25257  1.0000
  C  Sn24      1.0  0.90198  0.50216  0.26467  1.0000
  C   C383      1.0  0.92670  0.51952  0.30339  1.0000
  C   C384      1.0  0.93122  0.54269  0.32993  1.0000
  H   H191      1.0  0.91447  0.56653  0.33853  1.0000
  O  Te23      1.0  0.85660  0.49119  0.21414  1.0000
  O  Te24      1.0  0.89780  0.47910  0.23854  1.0000
  H   H192      1.0  0.95040  0.55601  0.35986  1.0000
  Mg  Mg12      1.0  0.86054  0.46218  0.18928  1.0000
  C   C385      1.0  0.62562  0.55088  0.66969  1.0000
  C   C386      1.0  0.60271  0.52861  0.77534  1.0000
  C  Sn25      1.0  0.60089  0.50124  0.90954  1.0000
  C  Sn26      1.0  0.62245  0.49612  0.93822  1.0000
  C   C387      1.0  0.64529  0.51855  0.83190  1.0000
  C   C388      1.0  0.64690  0.54585  0.69794  1.0000
  H   H193      1.0  0.62687  0.57201  0.56611  1.0000
  O  Te25      1.0  0.58165  0.54918  0.01383  1.0000
  O  Te26      1.0  0.62497  0.53891  0.07148  1.0000
  H   H194      1.0  0.66465  0.56309  0.61625  1.0000
  Mg  Mg13      1.0  0.58936  0.51586  0.17883  1.0000
  C   C389      1.0  0.45596  0.08479  0.70879  1.0000
  C   C390      1.0  0.47530  0.07617  0.75887  1.0000
  C  Sn27      1.0  0.49897  0.09179  0.82002  1.0000
  C  Sn28      1.0  0.50330  0.11647  0.83114  1.0000
  C   C391      1.0  0.48383  0.12490  0.78086  1.0000
  C   C392      1.0  0.46022  0.10913  0.71979  1.0000
  H   H195      1.0  0.43769  0.07258  0.66164  1.0000
  O  Te27      1.0  0.51809  0.08288  0.86944  1.0000
  O  Te28      1.0  0.52678  0.13246  0.89186  1.0000
  H   H196      1.0  0.44524  0.11579  0.68115  1.0000
  Mg  Mg14      1.0  0.54686  0.11174  0.94376  1.0000
  C   C393      1.0  0.89804  0.40188  0.78788  1.0000
  C   C394      1.0  0.92304  0.40578  0.78966  1.0000
  C  Sn29      1.0  0.92740  0.38705  0.76280  1.0000
  C  Sn30      1.0  0.90631  0.36401  0.73361  1.0000
  C   C395      1.0  0.88138  0.36030  0.73195  1.0000
  C   C396      1.0  0.87723  0.37917  0.75903  1.0000
  H   H197      1.0  0.89482  0.41649  0.80873  1.0000
  O  Te29      1.0  0.95250  0.39125  0.76506  1.0000
  O  Te30      1.0  0.91013  0.34497  0.70634  1.0000
  H   H198      1.0  0.85787  0.37615  0.75752  1.0000
  Mg  Mg15      1.0  0.94790  0.35960  0.72140  1.0000
  C   C397      1.0  0.40198  0.50171  0.79916  1.0000
  C   C398      1.0  0.40649  0.48126  0.79584  1.0000
  C  Sn31      1.0  0.38603  0.45729  0.77909  1.0000
  C  Sn32      1.0  0.36061  0.45378  0.76538  1.0000
  C   C399      1.0  0.35630  0.47436  0.76870  1.0000
  C   C400      1.0  0.37691  0.49827  0.78557  1.0000
  H   H199      1.0  0.41793  0.52021  0.81211  1.0000
  O  Te31      1.0  0.39087  0.43707  0.77608  1.0000
  O  Te32      1.0  0.33981  0.43002  0.74844  1.0000
  H   H200      1.0  0.37342  0.51410  0.78801  1.0000
  Mg  Mg16      1.0  0.35619  0.40832  0.75087  1.0000
  C   C401      1.0  0.49810  0.88051  0.86401  1.0000
  C   C402      1.0  0.51541  0.87900  0.78519  1.0000
  C  Sn33      1.0  0.53863  0.90352  0.69904  1.0000
  C  Sn34      1.0  0.54457  0.93001  0.69194  1.0000
  C   C403      1.0  0.52714  0.93130  0.77133  1.0000
  C   C404      1.0  0.50395  0.90663  0.85714  1.0000
  H   H201      1.0  0.48017  0.86142  0.93050  1.0000
  O  Te33      1.0  0.55570  0.90163  0.62092  1.0000
  O  Te34      1.0  0.56765  0.95485  0.60676  1.0000
  H   H202      1.0  0.49056  0.90781  0.91826  1.0000
  Mg  Mg17      1.0  0.58469  0.94140  0.52016  1.0000
  C   C405      1.0  0.10144  0.59319  0.92021  1.0000
  C   C406      1.0  0.07981  0.59501  0.81506  1.0000
  C  Sn35      1.0  0.08119  0.62200  0.67578  1.0000
  C  Sn36      1.0  0.10470  0.64760  0.64142  1.0000
  C   C407      1.0  0.12625  0.64555  0.74728  1.0000
  C   C408      1.0  0.12465  0.61843  0.88636  1.0000
  H   H203      1.0  0.10402  0.64215  0.02774  1.0000
  O  Te35      1.0  0.05939  0.62342  0.57207  1.0000
  O  Te36      1.0  0.10663  0.67485  0.50302  1.0000
  H   H204      1.0  0.14141  0.61703  0.96766  1.0000
  Mg  Mg18      1.0  0.07161  0.66559  0.39875  1.0000
  C   C409      1.0  0.50496  0.62099  0.70857  1.0000
  C   C410      1.0  0.52382  0.64062  0.77301  1.0000
  C  Sn37      1.0  0.54641  0.63837  0.85019  1.0000
  C  Sn38      1.0  0.55015  0.61604  0.86285  1.0000
  C   C411      1.0  0.53118  0.59652  0.79786  1.0000
  C   C412      1.0  0.50864  0.59897  0.72094  1.0000
  H   H205      1.0  0.48753  0.62289  0.64896  1.0000
  O  Te37      1.0  0.56505  0.65816  0.91396  1.0000
  O  Te38      1.0  0.57255  0.61331  0.93930  1.0000
  H   H206      1.0  0.49405  0.58378  0.67095  1.0000
  Mg  Mg19      1.0  0.59613  0.71545  0.00708  1.0000
  C   C413      1.0  0.36156  0.91251  0.82364  1.0000
  C   C414      1.0  0.35641  0.88999  0.78726  1.0000
  C  Sn39      1.0  0.37657  0.88645  0.76403  1.0000
  C  Sn40      1.0  0.40235  0.90585  0.77760  1.0000
  C   C415      1.0  0.40731  0.92829  0.81418  1.0000
  C   C416      1.0  0.38699  0.93164  0.83712  1.0000
  H   H207      1.0  0.34584  0.91510  0.84150  1.0000
  O  Te39      1.0  0.37108  0.86385  0.72769  1.0000
  O  Te40      1.0  0.42286  0.90280  0.75505  1.0000
  H   H208      1.0  0.89043  0.94907  0.86541  1.0000
  Mg  Mg20      1.0  0.40559  0.86862  0.70755  1.0000
  C   C417      1.0  0.10996  0.49707  0.64007  1.0000
  C   C418      1.0  0.11691  0.47498  0.76605  1.0000
  C  Sn41      1.0  0.10002  0.44967  0.91554  1.0000
  C  Sn42      1.0  0.07574  0.44647  0.93895  1.0000
  C   C419      1.0  0.06895  0.46869  0.81208  1.0000
  C   C420      1.0  0.08600  0.49393  0.66302  1.0000
  H   H209      1.0  0.12314  0.51660  0.52467  1.0000
  O  Te41      1.0  0.11108  0.49776  0.04015  1.0000
  O  Te42      1.0  0.06229  0.49134  0.08709  1.0000
  H   H210      1.0  0.08061  0.51102  0.56543  1.0000
  Mg  Mg21      1.0  0.08096  0.46764  0.22005  1.0000
  C   C421      1.0  0.50044  0.38974  0.70682  1.0000
  C   C422      1.0  0.48154  0.36084  0.79173  1.0000
  C  Sn43      1.0  0.45892  0.35345  0.87005  1.0000
  C  Sn44      1.0  0.45520  0.37545  0.86298  1.0000
  C   C423      1.0  0.47422  0.40430  0.77760  1.0000
  C   C424      1.0  0.49679  0.41145  0.69972  1.0000
  H   H211      1.0  0.51789  0.39528  0.64647  1.0000
  O  Te43      1.0  0.44023  0.32447  0.95441  1.0000
  O  Te44      1.0  0.43277  0.36866  0.94010  1.0000
  H   H212      1.0  0.51141  0.43383  0.63388  1.0000
  Mg  Mg22      1.0  0.41674  0.39600  0.03989  1.0000
  C   C425      1.0  0.62552  0.06570  0.90803  1.0000
  C   C426      1.0  0.60292  0.06758  0.82569  1.0000
  C  Sn45      1.0  0.60287  0.09456  0.72151  1.0000
  C  Sn46      1.0  0.62590  0.12009  0.69954  1.0000
  C   C427      1.0  0.64841  0.11798  0.78235  1.0000
  C   C428      1.0  0.64824  0.09087  0.88637  1.0000
  H   H213      1.0  0.62539  0.04473  0.98842  1.0000
  O  Te45      1.0  0.58013  0.09604  0.64025  1.0000
  O  Te46      1.0  0.62640  0.14733  0.59607  1.0000
  H   H214      1.0  0.66575  0.08943  0.94999  1.0000
  Mg  Mg23      1.0  0.59050  0.13816  0.51228  1.0000
  C   C429      1.0  0.91746  0.55351  0.82149  1.0000
  C   C430      1.0  0.89251  0.53725  0.77905  1.0000
  C  Sn47      1.0  0.88704  0.51423  0.74735  1.0000
  C  Sn48      1.0  0.90696  0.50740  0.75849  1.0000
  C   C431      1.0  0.93185  0.52378  0.80118  1.0000
  C   C432      1.0  0.93712  0.54679  0.83259  1.0000
  H   H215      1.0  0.92154  0.57130  0.84590  1.0000
  O  Te47      1.0  0.86201  0.49821  0.70503  1.0000
  O  Te48      1.0  0.90202  0.48449  0.72751  1.0000
  H   H216      1.0  0.95643  0.55936  0.86557  1.0000
  Mg  Mg24      1.0  0.86484  0.46903  0.67419  1.0000
