data_image0
_chemical_formula_structural       H216C408N24SnCSn2CSnTe4Mg2SnCSn2CSnTe4Mg2SnCSn2CSnTe4Mg2SnCSn2CSnTe4Mg2SnCSn2CSnTe4Mg2SnCSn2CSnTe4Mg2SnCSn2CSnTe4Mg2SnCSn2CSnTe4Mg2SnCSn2CSnTe4Mg2SnCSn2CSnTe4Mg2SnCSn2CSnTe4Mg2SnCSn2CSnTe4Mg2
_chemical_formula_sum              "H216 C432 N24 Sn48 Te48 Mg24"
_cell_length_a       60.0949
_cell_length_b       60.0892
_cell_length_c       8.03927
_cell_angle_alpha    59.4316
_cell_angle_beta     103.49
_cell_angle_gamma    120.04

_symmetry_space_group_name_H-M    'P1'
_space_group_IT_number       1

loop_
  _space_group_symop_operation_xyz
  'x, y, z'

loop_
  _atom_site_type_symbol
  _atom_site_label
  _atom_site_symmetry_multiplicity
  _atom_site_fract_x
  _atom_site_fract_y
  _atom_site_fract_z
  _atom_site_occupancy
  H   H1        1.0  0.48440  0.54820  0.30950  1.0000
  H   H2        1.0  0.44827  0.93392  0.29669  1.0000
  H   H3        1.0  0.06226  0.51307  0.27997  1.0000
  H   H4        1.0  0.51264  0.44974  0.28820  1.0000
  H   H5        1.0  0.54694  0.06351  0.28851  1.0000
  H   H6        1.0  0.93348  0.48063  0.31319  1.0000
  H   H7        1.0  0.56671  0.58596  0.31066  1.0000
  H   H8        1.0  0.40863  0.97588  0.31012  1.0000
  H   H9        1.0  0.01875  0.42749  0.33174  1.0000
  H   H10       1.0  0.43057  0.41405  0.25785  1.0000
  H   H11       1.0  0.58545  0.02287  0.24515  1.0000
  H   H12       1.0  0.97657  0.56707  0.25200  1.0000
  H   H13       1.0  0.58839  0.56052  0.32314  1.0000
  H   H14       1.0  0.43252  0.02203  0.31432  1.0000
  H   H15       1.0  0.97227  0.40552  0.32813  1.0000
  H   H16       1.0  0.40921  0.43850  0.25887  1.0000
  H   H17       1.0  0.56127  0.97625  0.25020  1.0000
  H   H18       1.0  0.02321  0.58986  0.24957  1.0000
  H   H19       1.0  0.54524  0.47902  0.31278  1.0000
  H   H20       1.0  0.51495  0.06465  0.27827  1.0000
  H   H21       1.0  0.93278  0.45223  0.26646  1.0000
  H   H22       1.0  0.45238  0.51871  0.29150  1.0000
  H   H23       1.0  0.47894  0.93533  0.26340  1.0000
  H   H24       1.0  0.06298  0.54503  0.28790  1.0000
  H   H25       1.0  0.57794  0.47238  0.54923  1.0000
  H   H26       1.0  0.51360  0.08611  0.39825  1.0000
  H   H27       1.0  0.08590  0.56476  0.48835  1.0000
  H   H28       1.0  0.61662  0.46747  0.54695  1.0000
  H   H29       1.0  0.51758  0.13150  0.36037  1.0000
  H   H30       1.0  0.12938  0.60412  0.48501  1.0000
  H   H31       1.0  0.65242  0.55642  0.11034  1.0000
  H   H32       1.0  0.44155  0.11139  0.13754  1.0000
  H   H33       1.0  0.10627  0.66793  0.04302  1.0000
  H   H34       1.0  0.61401  0.56138  0.11318  1.0000
  H   H35       1.0  0.43810  0.06728  0.16189  1.0000
  H   H36       1.0  0.06302  0.62878  0.04366  1.0000
  H   H37       1.0  0.56473  0.60976  0.41409  1.0000
  H   H38       1.0  0.05578  0.42625  0.53904  1.0000
  H   H39       1.0  0.43267  0.37350  0.41983  1.0000
  H   H40       1.0  0.61145  0.04094  0.44479  1.0000
  H   H41       1.0  0.94461  0.56151  0.33372  1.0000
  H   H42       1.0  0.56745  0.65434  0.38209  1.0000
  H   H43       1.0  0.09614  0.42510  0.52376  1.0000
  H   H44       1.0  0.43094  0.33051  0.43161  1.0000
  H   H45       1.0  0.65411  0.08026  0.45424  1.0000
  H   H46       1.0  0.90375  0.56236  0.32724  1.0000
  H   H47       1.0  0.49117  0.63252  0.16218  1.0000
  H   H48       1.0  0.12533  0.51249  0.06070  1.0000
  H   H49       1.0  0.50696  0.38283  0.17550  1.0000
  H   H50       1.0  0.62527  0.14281  0.11569  1.0000
  H   H51       1.0  0.86252  0.48563  0.25214  1.0000
  H   H52       1.0  0.48894  0.58931  0.18195  1.0000
  H   H53       1.0  0.08517  0.51364  0.07607  1.0000
  H   H54       1.0  0.50874  0.42545  0.16218  1.0000
  H   H55       1.0  0.58306  0.10382  0.10031  1.0000
  H   H56       1.0  0.90259  0.48543  0.24715  1.0000
  H   H57       1.0  0.68516  0.54793  0.30436  1.0000
  H   H58       1.0  0.44508  0.13834  0.25348  1.0000
  H   H59       1.0  0.86357  0.31365  0.18969  1.0000
  H   H60       1.0  0.30963  0.45346  0.19491  1.0000
  H   H61       1.0  0.55233  0.86376  0.29818  1.0000
  H   H62       1.0  0.13347  0.68719  0.25899  1.0000
  H   H63       1.0  0.68134  0.48699  0.25173  1.0000
  H   H64       1.0  0.51006  0.19767  0.27162  1.0000
  H   H65       1.0  0.80394  0.31460  0.24959  1.0000
  H   H66       1.0  0.31264  0.51143  0.27384  1.0000
  H   H67       1.0  0.48779  0.80284  0.29435  1.0000
  H   H68       1.0  0.19427  0.68402  0.24816  1.0000
  H   H69       1.0  0.73009  0.56516  0.30413  1.0000
  H   H70       1.0  0.42842  0.16801  0.22607  1.0000
  H   H71       1.0  0.83504  0.26728  0.20337  1.0000
  H   H72       1.0  0.26410  0.43366  0.21728  1.0000
  H   H73       1.0  0.56998  0.83856  0.27088  1.0000
  H   H74       1.0  0.16141  0.73219  0.26265  1.0000
  H   H75       1.0  0.49384  0.65719  0.29639  1.0000
  H   H76       1.0  0.34129  0.83818  0.20176  1.0000
  H   H77       1.0  0.16122  0.50766  0.26418  1.0000
  H   H78       1.0  0.50522  0.33978  0.33381  1.0000
  H   H79       1.0  0.65488  0.15938  0.33169  1.0000
  H   H80       1.0  0.83147  0.49050  0.25252  1.0000
  H   H81       1.0  0.47563  0.68495  0.28589  1.0000
  H   H82       1.0  0.31363  0.79236  0.20432  1.0000
  H   H83       1.0  0.20752  0.52621  0.26251  1.0000
  H   H84       1.0  0.52330  0.31266  0.32717  1.0000
  H   H85       1.0  0.68362  0.20596  0.32321  1.0000
  H   H86       1.0  0.78648  0.47347  0.24568  1.0000
  H   H87       1.0  0.55779  0.72195  0.24586  1.0000
  H   H88       1.0  0.28046  0.83746  0.25702  1.0000
  H   H89       1.0  0.15883  0.44596  0.23680  1.0000
  H   H90       1.0  0.44176  0.28316  0.27611  1.0000
  H   H91       1.0  0.71515  0.15849  0.28354  1.0000
  H   H92       1.0  0.83501  0.55114  0.30434  1.0000
  H   H93       1.0  0.77745  0.58425  0.31056  1.0000
  H   H94       1.0  0.40894  0.19592  0.22472  1.0000
  H   H95       1.0  0.80637  0.21887  0.22089  1.0000
  H   H96       1.0  0.21666  0.41486  0.20644  1.0000
  H   H97       1.0  0.59005  0.81278  0.24771  1.0000
  H   H98       1.0  0.18933  0.77891  0.27133  1.0000
  H   H99       1.0  0.81577  0.57872  0.31609  1.0000
  H   H100      1.0  0.41377  0.23802  0.24332  1.0000
  H   H101      1.0  0.76256  0.17896  0.25176  1.0000
  H   H102      1.0  0.17826  0.41958  0.21053  1.0000
  H   H103      1.0  0.58560  0.77033  0.23663  1.0000
  H   H104      1.0  0.23290  0.81762  0.26714  1.0000
  H   H105      1.0  0.70086  0.46113  0.21839  1.0000
  H   H106      1.0  0.53822  0.24343  0.29895  1.0000
  H   H107      1.0  0.75631  0.29408  0.28146  1.0000
  H   H108      1.0  0.29334  0.53976  0.27494  1.0000
  H   H109      1.0  0.45990  0.75455  0.30056  1.0000
  H   H110      1.0  0.24208  0.70456  0.22968  1.0000
  H   H111      1.0  0.73922  0.45587  0.22050  1.0000
  H   H112      1.0  0.54304  0.28526  0.32027  1.0000
  H   H113      1.0  0.71255  0.25419  0.31353  1.0000
  H   H114      1.0  0.25503  0.54520  0.27048  1.0000
  H   H115      1.0  0.45545  0.71164  0.29640  1.0000
  H   H116      1.0  0.28558  0.74431  0.21033  1.0000
  H   H117      1.0  0.48602  0.54715  0.81004  1.0000
  H   H118      1.0  0.45259  0.93693  0.77822  1.0000
  H   H119      1.0  0.06705  0.51601  0.77474  1.0000
  H   H120      1.0  0.51866  0.45143  0.78715  1.0000
  H   H121      1.0  0.55173  0.06472  0.79238  1.0000
  H   H122      1.0  0.93818  0.48358  0.82084  1.0000
  H   H123      1.0  0.56842  0.58722  0.80959  1.0000
  H   H124      1.0  0.41400  0.97713  0.83076  1.0000
  H   H125      1.0  0.02293  0.43017  0.83108  1.0000
  H   H126      1.0  0.43670  0.41481  0.74185  1.0000
  H   H127      1.0  0.59025  0.02363  0.75601  1.0000
  H   H128      1.0  0.98178  0.57072  0.74636  1.0000
  H   H129      1.0  0.59143  0.56392  0.81277  1.0000
  H   H130      1.0  0.43793  0.02297  0.83062  1.0000
  H   H131      1.0  0.97666  0.40862  0.82644  1.0000
  H   H132      1.0  0.41400  0.43729  0.74830  1.0000
  H   H133      1.0  0.56600  0.97776  0.75025  1.0000
  H   H134      1.0  0.02810  0.59298  0.74836  1.0000
  H   H135      1.0  0.55086  0.48202  0.80823  1.0000
  H   H136      1.0  0.52014  0.06698  0.77045  1.0000
  H   H137      1.0  0.93750  0.45554  0.76693  1.0000
  H   H138      1.0  0.45442  0.51612  0.79902  1.0000
  H   H139      1.0  0.48365  0.93748  0.75478  1.0000
  H   H140      1.0  0.06791  0.54759  0.79683  1.0000
  H   H141      1.0  0.90483  0.42077  0.81816  1.0000
  H   H142      1.0  0.42307  0.51497  0.81693  1.0000
  H   H143      1.0  0.09027  0.56855  0.00611  1.0000
  H   H144      1.0  0.86368  0.38143  0.79786  1.0000
  H   H145      1.0  0.38188  0.51416  0.82254  1.0000
  H   H146      1.0  0.13324  0.60856  0.00386  1.0000
  H   H147      1.0  0.90453  0.34577  0.71719  1.0000
  H   H148      1.0  0.34135  0.43652  0.75835  1.0000
  H   H149      1.0  0.11024  0.67118  0.54450  1.0000
  H   H150      1.0  0.94524  0.38482  0.73233  1.0000
  H   H151      1.0  0.38174  0.43686  0.75394  1.0000
  H   H152      1.0  0.06800  0.63131  0.53587  1.0000
  H   H153      1.0  0.05924  0.42863  0.04339  1.0000
  H   H154      1.0  0.09795  0.42460  0.03074  1.0000
  H   H155      1.0  0.12871  0.51066  0.55243  1.0000
  H   H156      1.0  0.09000  0.51451  0.56369  1.0000
  H   H157      1.0  0.69167  0.55801  0.78165  1.0000
  H   H158      1.0  0.44601  0.13728  0.74132  1.0000
  H   H159      1.0  0.86789  0.31608  0.69752  1.0000
  H   H160      1.0  0.31068  0.44507  0.71479  1.0000
  H   H161      1.0  0.55754  0.86569  0.79660  1.0000
  H   H162      1.0  0.13591  0.69107  0.76530  1.0000
  H   H163      1.0  0.68851  0.49625  0.74722  1.0000
  H   H164      1.0  0.51006  0.19468  0.77456  1.0000
  H   H165      1.0  0.80761  0.31712  0.74639  1.0000
  H   H166      1.0  0.31407  0.50547  0.76422  1.0000
  H   H167      1.0  0.49277  0.80511  0.79842  1.0000
  H   H168      1.0  0.19678  0.68919  0.74545  1.0000
  H   H169      1.0  0.73744  0.57542  0.78672  1.0000
  H   H170      1.0  0.42880  0.16740  0.72288  1.0000
  H   H171      1.0  0.83982  0.27038  0.70484  1.0000
  H   H172      1.0  0.26480  0.42592  0.73099  1.0000
  H   H173      1.0  0.57470  0.83997  0.76497  1.0000
  H   H174      1.0  0.16394  0.73684  0.76727  1.0000
  H   H175      1.0  0.49508  0.65850  0.78704  1.0000
  H   H176      1.0  0.34368  0.84235  0.69892  1.0000
  H   H177      1.0  0.16475  0.50399  0.76116  1.0000
  H   H178      1.0  0.51045  0.34008  0.82355  1.0000
  H   H179      1.0  0.65995  0.15959  0.85384  1.0000
  H   H180      1.0  0.83719  0.49722  0.75896  1.0000
  H   H181      1.0  0.47786  0.68704  0.77658  1.0000
  H   H182      1.0  0.31606  0.79641  0.71074  1.0000
  H   H183      1.0  0.20951  0.52062  0.76151  1.0000
  H   H184      1.0  0.52701  0.31126  0.82544  1.0000
  H   H185      1.0  0.68823  0.20623  0.83851  1.0000
  H   H186      1.0  0.79308  0.48206  0.74168  1.0000
  H   H187      1.0  0.55984  0.72219  0.74063  1.0000
  H   H188      1.0  0.28327  0.84290  0.74964  1.0000
  H   H189      1.0  0.16016  0.44066  0.73283  1.0000
  H   H190      1.0  0.44579  0.28407  0.77321  1.0000
  H   H191      1.0  0.72058  0.15980  0.79435  1.0000
  H   H192      1.0  0.84208  0.55926  0.80515  1.0000
  H   H193      1.0  0.78487  0.59343  0.80441  1.0000
  H   H194      1.0  0.41047  0.19659  0.72025  1.0000
  H   H195      1.0  0.81156  0.22204  0.71855  1.0000
  H   H196      1.0  0.21739  0.40760  0.71949  1.0000
  H   H197      1.0  0.59386  0.81332  0.74356  1.0000
  H   H198      1.0  0.19197  0.78444  0.76418  1.0000
  H   H199      1.0  0.82296  0.58733  0.81424  1.0000
  H   H200      1.0  0.41668  0.23904  0.74110  1.0000
  H   H201      1.0  0.76813  0.18147  0.75441  1.0000
  H   H202      1.0  0.17930  0.41331  0.71598  1.0000
  H   H203      1.0  0.58848  0.77055  0.73104  1.0000
  H   H204      1.0  0.23558  0.82341  0.75576  1.0000
  H   H205      1.0  0.70768  0.47013  0.71536  1.0000
  H   H206      1.0  0.53920  0.23981  0.80565  1.0000
  H   H207      1.0  0.75997  0.29552  0.78472  1.0000
  H   H208      1.0  0.29504  0.53367  0.77180  1.0000
  H   H209      1.0  0.46400  0.75718  0.80009  1.0000
  H   H210      1.0  0.24441  0.70968  0.72451  1.0000
  H   H211      1.0  0.74593  0.46451  0.71912  1.0000
  H   H212      1.0  0.54535  0.28233  0.82610  1.0000
  H   H213      1.0  0.71659  0.25487  0.82295  1.0000
  H   H214      1.0  0.25693  0.53931  0.76862  1.0000
  H   H215      1.0  0.45863  0.71424  0.79020  1.0000
  H   H216      1.0  0.28802  0.74897  0.71116  1.0000
  C   C1        1.0  0.47353  0.99899  0.29390  1.0000
  C   C2        1.0  0.99700  0.47257  0.30199  1.0000
  C   C3        1.0  0.52281  0.52185  0.30364  1.0000
  C   C4        1.0  0.52052  0.99974  0.26730  1.0000
  C   C5        1.0  0.99834  0.52257  0.27501  1.0000
  C   C6        1.0  0.47437  0.47704  0.28181  1.0000
  C   C7        1.0  0.47491  0.50058  0.28818  1.0000
  C   C8        1.0  0.49667  0.97567  0.27300  1.0000
  C   C9        1.0  0.02194  0.52194  0.28097  1.0000
  C   C10       1.0  0.52218  0.49789  0.30230  1.0000
  C   C11       1.0  0.49739  0.02314  0.28751  1.0000
  C   C12       1.0  0.97341  0.47338  0.29313  1.0000
  C   C13       1.0  0.49985  0.52368  0.29919  1.0000
  C   C14       1.0  0.47255  0.97514  0.28911  1.0000
  C   C15       1.0  0.02127  0.49645  0.29241  1.0000
  C   C16       1.0  0.49731  0.47517  0.28708  1.0000
  C   C17       1.0  0.52162  0.02351  0.27473  1.0000
  C   C18       1.0  0.97408  0.49865  0.28538  1.0000
  C   C19       1.0  0.50183  0.54732  0.30495  1.0000
  C   C20       1.0  0.44873  0.95207  0.29836  1.0000
  C   C21       1.0  0.04357  0.49493  0.29124  1.0000
  C   C22       1.0  0.49531  0.45146  0.28219  1.0000
  C   C23       1.0  0.54564  0.04594  0.27316  1.0000
  C   C24       1.0  0.95175  0.49961  0.29346  1.0000
  C   C25       1.0  0.52565  0.57035  0.30831  1.0000
  C   C26       1.0  0.42509  0.95155  0.30342  1.0000
  C   C27       1.0  0.04312  0.47012  0.30878  1.0000
  C   C28       1.0  0.47147  0.42858  0.27706  1.0000
  C   C29       1.0  0.56895  0.04590  0.26612  1.0000
  C   C30       1.0  0.95178  0.52390  0.28200  1.0000
  C   C31       1.0  0.54793  0.56856  0.31138  1.0000
  C   C32       1.0  0.42618  0.97508  0.30662  1.0000
  C   C33       1.0  0.01952  0.44647  0.32421  1.0000
  C   C34       1.0  0.44921  0.43072  0.26830  1.0000
  C   C35       1.0  0.56780  0.02294  0.25649  1.0000
  C   C36       1.0  0.97551  0.54774  0.26335  1.0000
  C   C37       1.0  0.54713  0.54467  0.31097  1.0000
  C   C38       1.0  0.44991  0.99880  0.30377  1.0000
  C   C39       1.0  0.99620  0.44742  0.31642  1.0000
  C   C40       1.0  0.45008  0.45453  0.27089  1.0000
  C   C41       1.0  0.54399  0.99974  0.25624  1.0000
  C   C42       1.0  0.99893  0.54751  0.26276  1.0000
  C   C43       1.0  0.57008  0.54319  0.31572  1.0000
  C   C44       1.0  0.45067  0.02278  0.30452  1.0000
  C   C45       1.0  0.97221  0.42438  0.31547  1.0000
  C   C46       1.0  0.42720  0.45591  0.26863  1.0000
  C   C47       1.0  0.54315  0.97608  0.25207  1.0000
  C   C48       1.0  0.02296  0.57126  0.25498  1.0000
  C   C49       1.0  0.56938  0.51942  0.32102  1.0000
  C   C50       1.0  0.47385  0.04660  0.29506  1.0000
  C   C51       1.0  0.94928  0.42600  0.29312  1.0000
  C   C52       1.0  0.42750  0.47856  0.27796  1.0000
  C   C53       1.0  0.51996  0.95258  0.25883  1.0000
  C   C54       1.0  0.04586  0.57022  0.26642  1.0000
  C   C55       1.0  0.54523  0.49692  0.31534  1.0000
  C   C56       1.0  0.49688  0.04592  0.28863  1.0000
  C   C57       1.0  0.95050  0.45068  0.28464  1.0000
  C   C58       1.0  0.45180  0.50089  0.28451  1.0000
  C   C59       1.0  0.49700  0.95324  0.26552  1.0000
  C   C60       1.0  0.04486  0.54533  0.28026  1.0000
  C   C61       1.0  0.52662  0.59584  0.30140  1.0000
  C   C62       1.0  0.06748  0.46991  0.30697  1.0000
  C   C63       1.0  0.47070  0.40297  0.28774  1.0000
  C   C64       1.0  0.59395  0.06937  0.27404  1.0000
  C   C65       1.0  0.92729  0.52365  0.28865  1.0000
  C   C66       1.0  0.59305  0.51720  0.32977  1.0000
  C   C67       1.0  0.47541  0.07269  0.28471  1.0000
  C   C68       1.0  0.07116  0.59390  0.26789  1.0000
  C   C69       1.0  0.59423  0.49079  0.45222  1.0000
  C   C70       1.0  0.49785  0.09166  0.33756  1.0000
  C   C71       1.0  0.09033  0.58738  0.39050  1.0000
  C   C72       1.0  0.61582  0.48793  0.45237  1.0000
  C   C73       1.0  0.50021  0.11708  0.31826  1.0000
  C   C74       1.0  0.11460  0.60917  0.38976  1.0000
  C   C75       1.0  0.63730  0.51166  0.33121  1.0000
  C   C76       1.0  0.47992  0.12459  0.25043  1.0000
  C   C77       1.0  0.12054  0.63857  0.26764  1.0000
  C   C78       1.0  0.63641  0.53828  0.21085  1.0000
  C   C79       1.0  0.45731  0.10576  0.19719  1.0000
  C   C80       1.0  0.10151  0.64532  0.14421  1.0000
  C   C81       1.0  0.61471  0.54093  0.21129  1.0000
  C   C82       1.0  0.45529  0.08063  0.21262  1.0000
  C   C83       1.0  0.07725  0.62329  0.14460  1.0000
  C   C84       1.0  0.54871  0.61488  0.35569  1.0000
  C   C85       1.0  0.07092  0.44501  0.43293  1.0000
  C   C86       1.0  0.44885  0.37572  0.36351  1.0000
  C   C87       1.0  0.61448  0.06328  0.37222  1.0000
  C   C88       1.0  0.92685  0.54526  0.30989  1.0000
  C   C89       1.0  0.55037  0.63982  0.33880  1.0000
  C   C90       1.0  0.09342  0.44430  0.42590  1.0000
  C   C91       1.0  0.44789  0.35149  0.37334  1.0000
  C   C92       1.0  0.63829  0.08507  0.37880  1.0000
  C   C93       1.0  0.90394  0.54580  0.30813  1.0000
  C   C94       1.0  0.52962  0.64657  0.27187  1.0000
  C   C95       1.0  0.11359  0.46881  0.29487  1.0000
  C   C96       1.0  0.46896  0.35331  0.31028  1.0000
  C   C97       1.0  0.64246  0.11402  0.29098  1.0000
  C   C98       1.0  0.88019  0.52443  0.28828  1.0000
  C   C99       1.0  0.50727  0.62747  0.21941  1.0000
  C   C100      1.0  0.11038  0.49392  0.16913  1.0000
  C   C101      1.0  0.49101  0.38044  0.23592  1.0000
  C   C102      1.0  0.62207  0.12037  0.19148  1.0000
  C   C103      1.0  0.88036  0.50238  0.27060  1.0000
  C   C104      1.0  0.50597  0.60284  0.23255  1.0000
  C   C105      1.0  0.08770  0.49437  0.17668  1.0000
  C   C106      1.0  0.49181  0.40460  0.22629  1.0000
  C   C107      1.0  0.59832  0.09839  0.18339  1.0000
  C   C108      1.0  0.90333  0.50217  0.26958  1.0000
  C   C109      1.0  0.68108  0.52800  0.30309  1.0000
  C   C110      1.0  0.46529  0.15446  0.24582  1.0000
  C   C111      1.0  0.84798  0.31593  0.21795  1.0000
  C   C112      1.0  0.31312  0.46926  0.24152  1.0000
  C   C113      1.0  0.53233  0.84824  0.29288  1.0000
  C   C114      1.0  0.14948  0.68315  0.26015  1.0000
  C   C115      1.0  0.70339  0.52607  0.28051  1.0000
  C   C116      1.0  0.46903  0.18028  0.24807  1.0000
  C   C117      1.0  0.82200  0.29334  0.22498  1.0000
  C   C118      1.0  0.29068  0.47226  0.24688  1.0000
  C   C119      1.0  0.52905  0.82319  0.28309  1.0000
  C   C120      1.0  0.17535  0.70581  0.25558  1.0000
  C   C121      1.0  0.70062  0.50294  0.26028  1.0000
  C   C122      1.0  0.49358  0.20101  0.26395  1.0000
  C   C123      1.0  0.80055  0.29544  0.24401  1.0000
  C   C124      1.0  0.29339  0.49581  0.26144  1.0000
  C   C125      1.0  0.50453  0.80097  0.28545  1.0000
  C   C126      1.0  0.19713  0.70327  0.24988  1.0000
  C   C127      1.0  0.72216  0.50040  0.25054  1.0000
  C   C128      1.0  0.49674  0.22503  0.27373  1.0000
  C   C129      1.0  0.77562  0.27326  0.25959  1.0000
  C   C130      1.0  0.27192  0.49923  0.25924  1.0000
  C   C131      1.0  0.50161  0.77666  0.28082  1.0000
  C   C132      1.0  0.22193  0.72520  0.24315  1.0000
  C   C133      1.0  0.74732  0.52166  0.26351  1.0000
  C   C134      1.0  0.47463  0.22867  0.26570  1.0000
  C   C135      1.0  0.77201  0.24785  0.25937  1.0000
  C   C136      1.0  0.24679  0.47794  0.24684  1.0000
  C   C137      1.0  0.52401  0.77476  0.26988  1.0000
  C   C138      1.0  0.22499  0.75030  0.24499  1.0000
  C   C139      1.0  0.75020  0.54570  0.27846  1.0000
  C   C140      1.0  0.44968  0.20778  0.24785  1.0000
  C   C141      1.0  0.79380  0.24573  0.23919  1.0000
  C   C142      1.0  0.24396  0.45372  0.23476  1.0000
  C   C143      1.0  0.54900  0.79760  0.26444  1.0000
  C   C144      1.0  0.20282  0.75266  0.25413  1.0000
  C   C145      1.0  0.72810  0.54752  0.28538  1.0000
  C   C146      1.0  0.44740  0.18391  0.24036  1.0000
  C   C147      1.0  0.81842  0.26870  0.22066  1.0000
  C   C148      1.0  0.26605  0.45157  0.23236  1.0000
  C   C149      1.0  0.55100  0.82129  0.27228  1.0000
  C   C150      1.0  0.17836  0.73042  0.25677  1.0000
  C   C151      1.0  0.51364  0.67484  0.27253  1.0000
  C   C152      1.0  0.32534  0.83938  0.23558  1.0000
  C   C153      1.0  0.15801  0.48774  0.26716  1.0000
  C   C154      1.0  0.48550  0.32491  0.31685  1.0000
  C   C155      1.0  0.67092  0.15695  0.31197  1.0000
  C   C156      1.0  0.83550  0.50891  0.27317  1.0000
  C   C157      1.0  0.51656  0.70094  0.26539  1.0000
  C   C158      1.0  0.29959  0.81718  0.23156  1.0000
  C   C159      1.0  0.18083  0.48600  0.25252  1.0000
  C   C160      1.0  0.48267  0.30040  0.30214  1.0000
  C   C161      1.0  0.69684  0.17978  0.30514  1.0000
  C   C162      1.0  0.81308  0.51214  0.27487  1.0000
  C   C163      1.0  0.49460  0.70276  0.27673  1.0000
  C   C164      1.0  0.29662  0.79337  0.21896  1.0000
  C   C165      1.0  0.20546  0.50771  0.25460  1.0000
  C   C166      1.0  0.50442  0.29701  0.30916  1.0000
  C   C167      1.0  0.70033  0.20440  0.30936  1.0000
  C   C168      1.0  0.78849  0.49160  0.25831  1.0000
  C   C169      1.0  0.49652  0.72704  0.27626  1.0000
  C   C170      1.0  0.27219  0.77075  0.22594  1.0000
  C   C171      1.0  0.22759  0.50544  0.25378  1.0000
  C   C172      1.0  0.50230  0.27357  0.29662  1.0000
  C   C173      1.0  0.72501  0.22717  0.29535  1.0000
  C   C174      1.0  0.76647  0.49434  0.25342  1.0000
  C   C175      1.0  0.52147  0.75020  0.26631  1.0000
  C   C176      1.0  0.24996  0.77270  0.23951  1.0000
  C   C177      1.0  0.22477  0.48089  0.24627  1.0000
  C   C178      1.0  0.47741  0.25281  0.27640  1.0000
  C   C179      1.0  0.74685  0.22497  0.27711  1.0000
  C   C180      1.0  0.76932  0.51861  0.26520  1.0000
  C   C181      1.0  0.54389  0.74837  0.25472  1.0000
  C   C182      1.0  0.25297  0.79740  0.24671  1.0000
  C   C183      1.0  0.19963  0.45935  0.23651  1.0000
  C   C184      1.0  0.45524  0.25634  0.26833  1.0000
  C   C185      1.0  0.74329  0.19967  0.27555  1.0000
  C   C186      1.0  0.79441  0.53941  0.28403  1.0000
  C   C187      1.0  0.54104  0.72388  0.25352  1.0000
  C   C188      1.0  0.27771  0.81897  0.24542  1.0000
  C   C189      1.0  0.17813  0.46215  0.24203  1.0000
  C   C190      1.0  0.45830  0.28007  0.28095  1.0000
  C   C191      1.0  0.71838  0.17760  0.28895  1.0000
  C   C192      1.0  0.81580  0.53578  0.28856  1.0000
  C   C193      1.0  0.77555  0.56644  0.29452  1.0000
  C   C194      1.0  0.42782  0.21185  0.23975  1.0000
  C   C195      1.0  0.78970  0.22013  0.23855  1.0000
  C   C196      1.0  0.21861  0.43278  0.22131  1.0000
  C   C197      1.0  0.57112  0.79528  0.25219  1.0000
  C   C198      1.0  0.20634  0.77763  0.26071  1.0000
  C   C199      1.0  0.79672  0.56336  0.29799  1.0000
  C   C200      1.0  0.43048  0.23513  0.24912  1.0000
  C   C201      1.0  0.76552  0.19805  0.25620  1.0000
  C   C202      1.0  0.19737  0.43544  0.22264  1.0000
  C   C203      1.0  0.56869  0.77180  0.24692  1.0000
  C   C204      1.0  0.23037  0.79902  0.25797  1.0000
  C   C205      1.0  0.71996  0.47673  0.23358  1.0000
  C   C206      1.0  0.52150  0.24630  0.29295  1.0000
  C   C207      1.0  0.75337  0.27488  0.27867  1.0000
  C   C208      1.0  0.27418  0.52365  0.26621  1.0000
  C   C209      1.0  0.47682  0.75316  0.28947  1.0000
  C   C210      1.0  0.24457  0.72358  0.23271  1.0000
  C   C211      1.0  0.74115  0.47375  0.23571  1.0000
  C   C212      1.0  0.52415  0.26946  0.30400  1.0000
  C   C213      1.0  0.72917  0.25279  0.29644  1.0000
  C   C214      1.0  0.25300  0.52673  0.26257  1.0000
  C   C215      1.0  0.47440  0.72939  0.28808  1.0000
  C   C216      1.0  0.26860  0.74554  0.22222  1.0000
  C   C217      1.0  0.47855  0.00086  0.79282  1.0000
  C   C218      1.0  0.00168  0.47541  0.80518  1.0000
  C   C219      1.0  0.52609  0.52243  0.80661  1.0000
  C   C220      1.0  0.52530  0.00142  0.76520  1.0000
  C   C221      1.0  0.00321  0.52545  0.77804  1.0000
  C   C222      1.0  0.47872  0.47693  0.78100  1.0000
  C   C223      1.0  0.47824  0.49977  0.79067  1.0000
  C   C224      1.0  0.50138  0.97762  0.76722  1.0000
  C   C225      1.0  0.02683  0.52471  0.78491  1.0000
  C   C226      1.0  0.52644  0.49905  0.80367  1.0000
  C   C227      1.0  0.50242  0.02504  0.78484  1.0000
  C   C228      1.0  0.97808  0.47627  0.79699  1.0000
  C   C229      1.0  0.50266  0.52336  0.80295  1.0000
  C   C230      1.0  0.47730  0.97721  0.78326  1.0000
  C   C231      1.0  0.02608  0.49925  0.79456  1.0000
  C   C232      1.0  0.50210  0.47585  0.78711  1.0000
  C   C233      1.0  0.52649  0.02516  0.77320  1.0000
  C   C234      1.0  0.97882  0.50158  0.78927  1.0000
  C   C235      1.0  0.50381  0.54674  0.80787  1.0000
  C   C236      1.0  0.45333  0.95456  0.78898  1.0000
  C   C237      1.0  0.04831  0.49776  0.78885  1.0000
  C   C238      1.0  0.50100  0.45267  0.77958  1.0000
  C   C239      1.0  0.55049  0.04725  0.77619  1.0000
  C   C240      1.0  0.95652  0.50268  0.79762  1.0000
  C   C241      1.0  0.52724  0.57022  0.81140  1.0000
  C   C242      1.0  0.42988  0.95385  0.80288  1.0000
  C   C243      1.0  0.04765  0.47285  0.80584  1.0000
  C   C244      1.0  0.47758  0.42983  0.76868  1.0000
  C   C245      1.0  0.57375  0.04688  0.77415  1.0000
  C   C246      1.0  0.95672  0.52731  0.78243  1.0000
  C   C247      1.0  0.54993  0.56931  0.81274  1.0000
  C   C248      1.0  0.43130  0.97674  0.81596  1.0000
  C   C249      1.0  0.02389  0.44925  0.82339  1.0000
  C   C250      1.0  0.45495  0.43137  0.75786  1.0000
  C   C251      1.0  0.57260  0.02396  0.76373  1.0000
  C   C252      1.0  0.98055  0.55110  0.76152  1.0000
  C   C253      1.0  0.54996  0.54593  0.81134  1.0000
  C   C254      1.0  0.45511  0.00044  0.80930  1.0000
  C   C255      1.0  0.00068  0.45028  0.81760  1.0000
  C   C256      1.0  0.45492  0.45437  0.76498  1.0000
  C   C257      1.0  0.54878  0.00120  0.75754  1.0000
  C   C258      1.0  0.00388  0.55054  0.76364  1.0000
  C   C259      1.0  0.57344  0.54591  0.80971  1.0000
  C   C260      1.0  0.45595  0.02409  0.81380  1.0000
  C   C261      1.0  0.97661  0.42733  0.81640  1.0000
  C   C262      1.0  0.43152  0.45480  0.76173  1.0000
  C   C263      1.0  0.54789  0.97772  0.75079  1.0000
  C   C264      1.0  0.02788  0.57427  0.75568  1.0000
  C   C265      1.0  0.57372  0.52283  0.81232  1.0000
  C   C266      1.0  0.47913  0.04814  0.79866  1.0000
  C   C267      1.0  0.95372  0.42898  0.79507  1.0000
  C   C268      1.0  0.43078  0.47651  0.77609  1.0000
  C   C269      1.0  0.52469  0.95453  0.75326  1.0000
  C   C270      1.0  0.05078  0.57308  0.77012  1.0000
  C   C271      1.0  0.55005  0.49941  0.81216  1.0000
  C   C272      1.0  0.50210  0.04794  0.78563  1.0000
  C   C273      1.0  0.95511  0.45373  0.78706  1.0000
  C   C274      1.0  0.45463  0.49899  0.78773  1.0000
  C   C275      1.0  0.50170  0.95526  0.75881  1.0000
  C   C276      1.0  0.04978  0.54804  0.78625  1.0000
  C   C277      1.0  0.07162  0.47175  0.80361  1.0000
  C   C278      1.0  0.92877  0.40610  0.77858  1.0000
  C   C279      1.0  0.40621  0.47625  0.78140  1.0000
  C   C280      1.0  0.07586  0.59701  0.77243  1.0000
  C   C281      1.0  0.90519  0.40490  0.79193  1.0000
  C   C282      1.0  0.40542  0.49786  0.80064  1.0000
  C   C283      1.0  0.09469  0.59101  0.90291  1.0000
  C   C284      1.0  0.88184  0.38267  0.78260  1.0000
  C   C285      1.0  0.38229  0.49766  0.80394  1.0000
  C   C286      1.0  0.11863  0.61316  0.90379  1.0000
  C   C287      1.0  0.88075  0.36053  0.75885  1.0000
  C   C288      1.0  0.35866  0.47604  0.78560  1.0000
  C   C289      1.0  0.12433  0.64240  0.77730  1.0000
  C   C290      1.0  0.90429  0.36178  0.74264  1.0000
  C   C291      1.0  0.35916  0.45392  0.77047  1.0000
  C   C292      1.0  0.10557  0.64864  0.64711  1.0000
  C   C293      1.0  0.92752  0.38404  0.75185  1.0000
  C   C294      1.0  0.38229  0.45413  0.76852  1.0000
  C   C295      1.0  0.08185  0.62624  0.64362  1.0000
  C   C296      1.0  0.07438  0.44651  0.93464  1.0000
  C   C297      1.0  0.09604  0.44421  0.92884  1.0000
  C   C298      1.0  0.11626  0.46745  0.79381  1.0000
  C   C299      1.0  0.11383  0.49297  0.66370  1.0000
  C   C300      1.0  0.09188  0.49497  0.66946  1.0000
  C   C301      1.0  0.68810  0.53808  0.78283  1.0000
  C   C302      1.0  0.46598  0.15317  0.74320  1.0000
  C   C303      1.0  0.85222  0.31857  0.72252  1.0000
  C   C304      1.0  0.31424  0.46199  0.75028  1.0000
  C   C305      1.0  0.53755  0.85040  0.78853  1.0000
  C   C306      1.0  0.15222  0.68744  0.76713  1.0000
  C   C307      1.0  0.71068  0.53589  0.76887  1.0000
  C   C308      1.0  0.46931  0.17865  0.74712  1.0000
  C   C309      1.0  0.82629  0.29613  0.72536  1.0000
  C   C310      1.0  0.29177  0.46535  0.74992  1.0000
  C   C311      1.0  0.53393  0.82504  0.78127  1.0000
  C   C312      1.0  0.17792  0.71059  0.75885  1.0000
  C   C313      1.0  0.70782  0.51220  0.75520  1.0000
  C   C314      1.0  0.49401  0.19875  0.76581  1.0000
  C   C315      1.0  0.80458  0.29803  0.74163  1.0000
  C   C316      1.0  0.29469  0.48959  0.75657  1.0000
  C   C317      1.0  0.50916  0.80290  0.78688  1.0000
  C   C318      1.0  0.19969  0.70831  0.74943  1.0000
  C   C319      1.0  0.72922  0.50916  0.75063  1.0000
  C   C320      1.0  0.49785  0.22290  0.77642  1.0000
  C   C321      1.0  0.77977  0.27563  0.75669  1.0000
  C   C322      1.0  0.27336  0.49323  0.75421  1.0000
  C   C323      1.0  0.50570  0.77853  0.78038  1.0000
  C   C324      1.0  0.22446  0.73020  0.74230  1.0000
  C   C325      1.0  0.75439  0.53024  0.76518  1.0000
  C   C326      1.0  0.47615  0.22724  0.76735  1.0000
  C   C327      1.0  0.77649  0.25038  0.75588  1.0000
  C   C328      1.0  0.24811  0.47189  0.74397  1.0000
  C   C329      1.0  0.52778  0.77629  0.76678  1.0000
  C   C330      1.0  0.22752  0.75523  0.74513  1.0000
  C   C331      1.0  0.75739  0.55465  0.77581  1.0000
  C   C332      1.0  0.45093  0.20690  0.74749  1.0000
  C   C333      1.0  0.79851  0.24860  0.73622  1.0000
  C   C334      1.0  0.24507  0.44719  0.73735  1.0000
  C   C335      1.0  0.55299  0.79884  0.76067  1.0000
  C   C336      1.0  0.20537  0.75764  0.75405  1.0000
  C   C337      1.0  0.73537  0.55719  0.77511  1.0000
  C   C338      1.0  0.44799  0.18286  0.73853  1.0000
  C   C339      1.0  0.82302  0.27164  0.72038  1.0000
  C   C340      1.0  0.26704  0.44446  0.73937  1.0000
  C   C341      1.0  0.55555  0.82279  0.76851  1.0000
  C   C342      1.0  0.18089  0.73521  0.75961  1.0000
  C   C343      1.0  0.51510  0.67558  0.76710  1.0000
  C   C344      1.0  0.32804  0.84367  0.73597  1.0000
  C   C345      1.0  0.16027  0.48359  0.76481  1.0000
  C   C346      1.0  0.49048  0.32530  0.81003  1.0000
  C   C347      1.0  0.67584  0.15734  0.82956  1.0000
  C   C348      1.0  0.84192  0.51634  0.77363  1.0000
  C   C349      1.0  0.51866  0.70200  0.75915  1.0000
  C   C350      1.0  0.30217  0.82180  0.73186  1.0000
  C   C351      1.0  0.18244  0.48068  0.74991  1.0000
  C   C352      1.0  0.48666  0.30009  0.79994  1.0000
  C   C353      1.0  0.70178  0.18065  0.81630  1.0000
  C   C354      1.0  0.81989  0.52031  0.77467  1.0000
  C   C355      1.0  0.49702  0.70447  0.76927  1.0000
  C   C356      1.0  0.29911  0.79774  0.72237  1.0000
  C   C357      1.0  0.20729  0.50214  0.75223  1.0000
  C   C358      1.0  0.50789  0.29585  0.80850  1.0000
  C   C359      1.0  0.70502  0.20529  0.81895  1.0000
  C   C360      1.0  0.79518  0.49995  0.75788  1.0000
  C   C361      1.0  0.49951  0.72885  0.77054  1.0000
  C   C362      1.0  0.27465  0.77534  0.72800  1.0000
  C   C363      1.0  0.22927  0.49976  0.75000  1.0000
  C   C364      1.0  0.50492  0.27189  0.79839  1.0000
  C   C365      1.0  0.72949  0.22868  0.79842  1.0000
  C   C366      1.0  0.77325  0.50267  0.75539  1.0000
  C   C367      1.0  0.52470  0.75163  0.76160  1.0000
  C   C368      1.0  0.25251  0.77759  0.73957  1.0000
  C   C369      1.0  0.22620  0.47510  0.74255  1.0000
  C   C370      1.0  0.47970  0.25162  0.77840  1.0000
  C   C371      1.0  0.75149  0.22711  0.77588  1.0000
  C   C372      1.0  0.77630  0.52692  0.76843  1.0000
  C   C373      1.0  0.54677  0.74928  0.74945  1.0000
  C   C374      1.0  0.25562  0.80255  0.74359  1.0000
  C   C375      1.0  0.20091  0.45365  0.73415  1.0000
  C   C376      1.0  0.45801  0.25598  0.76975  1.0000
  C   C377      1.0  0.74827  0.20175  0.77694  1.0000
  C   C378      1.0  0.80148  0.54772  0.78571  1.0000
  C   C379      1.0  0.54335  0.72455  0.74808  1.0000
  C   C380      1.0  0.28042  0.82410  0.74175  1.0000
  C   C381      1.0  0.17949  0.45675  0.73891  1.0000
  C   C382      1.0  0.46188  0.28011  0.78081  1.0000
  C   C383      1.0  0.72349  0.17905  0.79633  1.0000
  C   C384      1.0  0.82283  0.54399  0.78908  1.0000
  C   C385      1.0  0.78280  0.57530  0.79165  1.0000
  C   C386      1.0  0.42957  0.21189  0.73817  1.0000
  C   C387      1.0  0.79475  0.22307  0.73626  1.0000
  C   C388      1.0  0.21958  0.42612  0.72766  1.0000
  C   C389      1.0  0.57477  0.79605  0.74761  1.0000
  C   C390      1.0  0.20898  0.78294  0.75628  1.0000
  C   C391      1.0  0.80386  0.57185  0.79790  1.0000
  C   C392      1.0  0.43295  0.23535  0.74883  1.0000
  C   C393      1.0  0.77073  0.20061  0.75634  1.0000
  C   C394      1.0  0.19849  0.42930  0.72527  1.0000
  C   C395      1.0  0.57181  0.77238  0.74185  1.0000
  C   C396      1.0  0.23304  0.80447  0.75125  1.0000
  C   C397      1.0  0.72678  0.48537  0.73392  1.0000
  C   C398      1.0  0.52291  0.24347  0.79772  1.0000
  C   C399      1.0  0.75732  0.27662  0.77934  1.0000
  C   C400      1.0  0.27586  0.51772  0.76177  1.0000
  C   C401      1.0  0.48066  0.75540  0.78821  1.0000
  C   C402      1.0  0.24701  0.72854  0.73047  1.0000
  C   C403      1.0  0.74790  0.48228  0.73604  1.0000
  C   C404      1.0  0.52629  0.26696  0.80802  1.0000
  C   C405      1.0  0.73330  0.25410  0.80038  1.0000
  C   C406      1.0  0.25476  0.52088  0.75936  1.0000
  C   C407      1.0  0.47772  0.73168  0.78343  1.0000
  C   C408      1.0  0.27105  0.75024  0.72287  1.0000
  N   N1        1.0  0.65793  0.50734  0.32626  1.0000
  N   N2        1.0  0.48426  0.15030  0.24271  1.0000
  N   N3        1.0  0.85179  0.33665  0.24942  1.0000
  N   N4        1.0  0.33559  0.48471  0.28623  1.0000
  N   N5        1.0  0.51298  0.85172  0.29720  1.0000
  N   N6        1.0  0.14556  0.65935  0.27004  1.0000
  N   N7        1.0  0.53312  0.67216  0.26012  1.0000
  N   N8        1.0  0.32856  0.85875  0.27941  1.0000
  N   N9        1.0  0.13533  0.46638  0.28978  1.0000
  N   N10       1.0  0.46587  0.32854  0.31214  1.0000
  N   N11       1.0  0.66721  0.13492  0.29734  1.0000
  N   N12       1.0  0.85842  0.52700  0.29203  1.0000
  N   N13       1.0  0.66522  0.51717  0.80260  1.0000
  N   N14       1.0  0.48561  0.14945  0.74887  1.0000
  N   N15       1.0  0.85603  0.33935  0.75340  1.0000
  N   N16       1.0  0.33674  0.47845  0.78797  1.0000
  N   N17       1.0  0.51825  0.85433  0.78679  1.0000
  N   N18       1.0  0.14895  0.66369  0.78035  1.0000
  N   N19       1.0  0.53432  0.67212  0.75972  1.0000
  N   N20       1.0  0.33180  0.86296  0.78264  1.0000
  N   N21       1.0  0.13698  0.46321  0.78854  1.0000
  N   N22       1.0  0.47125  0.32957  0.80427  1.0000
  N   N23       1.0  0.67188  0.13527  0.81453  1.0000
  N   N24       1.0  0.86518  0.53428  0.78793  1.0000
  C  Sn1       1.0  0.62187  0.06559  0.95190  1.0000
  C   C409      1.0  0.60030  0.06844  0.85160  1.0000
  C  Sn2       1.0  0.60257  0.09562  0.70824  1.0000
  C  Sn3       1.0  0.62690  0.12049  0.66410  1.0000
  C   C410      1.0  0.64845  0.11763  0.76434  1.0000
  C  Sn4       1.0  0.64620  0.09045  0.90776  1.0000
  O  Te1       1.0  0.62296  0.10814  0.09465  1.0000
  O  Te2       1.0  0.58073  0.09793  0.60998  1.0000
  O  Te3       1.0  0.62960  0.14789  0.52122  1.0000
  O  Te4       1.0  0.67183  0.15808  0.00596  1.0000
  Mg  Mg1       1.0  0.59422  0.13993  0.42746  1.0000
  Mg  Mg2       1.0  0.65836  0.11609  0.18843  1.0000
  C  Sn5       1.0  0.50332  0.61669  0.77263  1.0000
  C   C411      1.0  0.52357  0.63772  0.81971  1.0000
  C  Sn6       1.0  0.54817  0.63965  0.84597  1.0000
  C  Sn7       1.0  0.55262  0.62016  0.82461  1.0000
  C   C412      1.0  0.53238  0.59915  0.77752  1.0000
  C  Sn8       1.0  0.50777  0.59721  0.75126  1.0000
  O  Te5       1.0  0.47888  0.61516  0.74703  1.0000
  O  Te6       1.0  0.56811  0.66084  0.89305  1.0000
  O  Te7       1.0  0.57708  0.62171  0.85025  1.0000
  O  Te8       1.0  0.48784  0.57603  0.70418  1.0000
  Mg  Mg3       1.0  0.59803  0.65429  0.91319  1.0000
  Mg  Mg4       1.0  0.45792  0.58257  0.68391  1.0000
  C  Sn9       1.0  0.60787  0.49755  0.98646  1.0000
  C   C413      1.0  0.60187  0.52065  0.87090  1.0000
  C  Sn10      1.0  0.61628  0.54381  0.70198  1.0000
  C  Sn11      1.0  0.63713  0.54389  0.64734  1.0000
  C   C414      1.0  0.64313  0.52080  0.76285  1.0000
  C  Sn12      1.0  0.62872  0.49763  0.93183  1.0000
  O  Te9       1.0  0.59700  0.54456  0.15472  1.0000
  O  Te10      1.0  0.60992  0.56666  0.58882  1.0000
  O  Te11      1.0  0.65181  0.56685  0.47894  1.0000
  O  Te12      1.0  0.63888  0.54473  0.04493  1.0000
  Mg  Mg5       1.0  0.63563  0.59297  0.37261  1.0000
  Mg  Mg6       1.0  0.61318  0.51840  0.26111  1.0000
  C  Sn13      1.0  0.39951  0.49970  0.35307  1.0000
  C   C415      1.0  0.40262  0.47917  0.33886  1.0000
  C  Sn14      1.0  0.38241  0.45973  0.27890  1.0000
  C  Sn15      1.0  0.35860  0.46083  0.23204  1.0000
  C   C416      1.0  0.35550  0.48135  0.24622  1.0000
  C  Sn16      1.0  0.37570  0.50080  0.30621  1.0000
  O  Te13      1.0  0.41997  0.51892  0.41331  1.0000
  O  Te14      1.0  0.38598  0.43940  0.26588  1.0000
  O  Te15      1.0  0.33814  0.44158  0.17177  1.0000
  O  Te16      1.0  0.37214  0.52112  0.31921  1.0000
  Mg  Mg7       1.0  0.35238  0.41784  0.17675  1.0000
  Mg  Mg8       1.0  0.40573  0.54270  0.40822  1.0000
  C  Sn17      1.0  0.92809  0.54629  0.87231  1.0000
  C   C417      1.0  0.93115  0.52673  0.84563  1.0000
  C  Sn18      1.0  0.91151  0.50960  0.76690  1.0000
  C  Sn19      1.0  0.88833  0.51208  0.71361  1.0000
  C   C418      1.0  0.88527  0.53163  0.74027  1.0000
  C  Sn20      1.0  0.90490  0.54877  0.81902  1.0000
  O  Te17      1.0  0.94798  0.56320  0.95126  1.0000
  O  Te18      1.0  0.91502  0.49019  0.74166  1.0000
  O  Te19      1.0  0.86843  0.49514  0.63462  1.0000
  O  Te20      1.0  0.90141  0.56817  0.84423  1.0000
  Mg  Mg9       1.0  0.88234  0.47187  0.62836  1.0000
  Mg  Mg10      1.0  0.93408  0.58651  0.95742  1.0000
  C  Sn21      1.0  0.38584  0.88382  0.83327  1.0000
  C   C419      1.0  0.36108  0.87964  0.84486  1.0000
  C  Sn22      1.0  0.35728  0.90235  0.81814  1.0000
  C  Sn23      1.0  0.37868  0.92982  0.77889  1.0000
  C   C420      1.0  0.40342  0.93398  0.76729  1.0000
  C  Sn24      1.0  0.40724  0.91128  0.79403  1.0000
  O  Te21      1.0  0.38919  0.86081  0.86046  1.0000
  O  Te22      1.0  0.33235  0.89765  0.83047  1.0000
  O  Te23      1.0  0.87476  0.95283  0.75170  1.0000
  O  Te24      1.0  0.43216  0.91597  0.78168  1.0000
  Mg  Mg11      1.0  0.33764  0.93575  0.78248  1.0000
  Mg  Mg12      1.0  0.42689  0.87790  0.82954  1.0000
  C  Sn25      1.0  0.49646  0.40397  0.65774  1.0000
  C   C421      1.0  0.47794  0.40565  0.72223  1.0000
  C  Sn26      1.0  0.45777  0.38041  0.84656  1.0000
  C  Sn27      1.0  0.45609  0.35291  0.90781  1.0000
  C   C422      1.0  0.47461  0.35124  0.84335  1.0000
  C  Sn28      1.0  0.49478  0.37647  0.71899  1.0000
  O  Te25      1.0  0.51646  0.42949  0.53350  1.0000
  O  Te26      1.0  0.43948  0.38264  0.90904  1.0000
  O  Te27      1.0  0.43987  0.39732  0.03214  1.0000
  O  Te28      1.0  0.51307  0.37425  0.65655  1.0000
  Mg  Mg13      1.0  0.41965  0.41160  0.07764  1.0000
  Mg  Mg14      1.0  0.53671  0.41522  0.48803  1.0000
  C  Sn29      1.0  0.54378  0.90848  0.26012  1.0000
  C   C423      1.0  0.52358  0.88025  0.33023  1.0000
  C  Sn30      1.0  0.49905  0.87486  0.36136  1.0000
  C  Sn31      1.0  0.49462  0.89816  0.32146  1.0000
  C   C424      1.0  0.51481  0.92637  0.25137  1.0000
  C  Sn32      1.0  0.53934  0.93178  0.22022  1.0000
  O  Te29      1.0  0.56814  0.91336  0.23006  1.0000
  O  Te30      1.0  0.47916  0.84646  0.43160  1.0000
  O  Te31      1.0  0.47023  0.89325  0.35158  1.0000
  O  Te32      1.0  0.55922  0.96016  0.15000  1.0000
  Mg  Mg15      1.0  0.44935  0.85080  0.44895  1.0000
  Mg  Mg16      1.0  0.58904  0.95585  0.13250  1.0000
  C  Sn33      1.0  0.35739  0.91215  0.26082  1.0000
  C   C425      1.0  0.35364  0.88900  0.23747  1.0000
  C  Sn34      1.0  0.37388  0.88248  0.26356  1.0000
  C  Sn35      1.0  0.39838  0.89944  0.31415  1.0000
  C   C426      1.0  0.40212  0.92257  0.33751  1.0000
  C  Sn36      1.0  0.38189  0.92911  0.31142  1.0000
  O  Te33      1.0  0.33688  0.91827  0.23404  1.0000
  O  Te34      1.0  0.36967  0.85924  0.23935  1.0000
  O  Te35      1.0  0.41889  0.89330  0.34093  1.0000
  O  Te36      1.0  0.38609  0.95233  0.33563  1.0000
  Mg  Mg17      1.0  0.40362  0.85944  0.29172  1.0000
  Mg  Mg18      1.0  0.35215  0.95214  0.28340  1.0000
  C  Sn37      1.0  0.50326  0.89347  0.89967  1.0000
  C   C427      1.0  0.52298  0.92198  0.82414  1.0000
  C  Sn38      1.0  0.54210  0.93092  0.70157  1.0000
  C  Sn39      1.0  0.54149  0.91096  0.65340  1.0000
  C   C428      1.0  0.52177  0.88248  0.72889  1.0000
  C  Sn40      1.0  0.50265  0.87351  0.85150  1.0000
  O  Te37      1.0  0.48815  0.95495  0.02191  1.0000
  O  Te38      1.0  0.06108  0.95953  0.62790  1.0000
  O  Te39      1.0  0.56043  0.91946  0.53106  1.0000
  O  Te40      1.0  0.48313  0.84492  0.92512  1.0000
  Mg  Mg19      1.0  0.58304  0.96073  0.46716  1.0000
  Mg  Mg20      1.0  0.46550  0.91365  0.08579  1.0000
  C  Sn41      1.0  0.50131  0.09453  0.89604  1.0000
  C   C429      1.0  0.48126  0.07361  0.84707  1.0000
  C  Sn42      1.0  0.46180  0.07941  0.72801  1.0000
  C  Sn43      1.0  0.46241  0.10671  0.65629  1.0000
  C   C430      1.0  0.48246  0.12761  0.70523  1.0000
  C  Sn44      1.0  0.50192  0.12182  0.82432  1.0000
  O  Te41      1.0  0.52436  0.15820  0.01527  1.0000
  O  Te42      1.0  0.44195  0.05815  0.68110  1.0000
  O  Te43      1.0  0.44314  0.11296  0.53698  1.0000
  O  Te44      1.0  0.52177  0.14307  0.87120  1.0000
  Mg  Mg21      1.0  0.42015  0.07698  0.51377  1.0000
  Mg  Mg22      1.0  0.54738  0.19421  0.03842  1.0000
  C  Sn45      1.0  0.90584  0.35796  0.29766  1.0000
  C   C431      1.0  0.88095  0.35340  0.31002  1.0000
  C  Sn46      1.0  0.87688  0.37564  0.28877  1.0000
  C  Sn47      1.0  0.89812  0.40302  0.25432  1.0000
  C   C432      1.0  0.92299  0.40757  0.24194  1.0000
  C  Sn48      1.0  0.92708  0.38533  0.26321  1.0000
  O  Te45      1.0  0.90946  0.33541  0.31935  1.0000
  O  Te46      1.0  0.85182  0.37056  0.30177  1.0000
  O  Te47      1.0  0.89448  0.42557  0.23264  1.0000
  O  Te48      1.0  0.95212  0.39040  0.25019  1.0000
  Mg  Mg23      1.0  0.85673  0.40809  0.26213  1.0000
  Mg  Mg24      1.0  0.94723  0.35290  0.28971  1.0000
