data_image0
_chemical_formula_structural       H168C336N24SnCSn2CSnTe4Mg2SnCSn2CSnTe4Mg2SnCSn2CSnTe4Mg2SnCSn2CSnTe4Mg2SnCSn2CSnTe4Mg2SnCSn2CSnTe4Mg2SnCSn2CSnTe4Mg2SnCSn2CSnTe4Mg2SnCSn2CSnTe4Mg2SnCSn2CSnTe4Mg2SnCSn2CSnTe4Mg2SnCSn2CSnTe4Mg2SnCSn2CSnTe4Mg2SnCSn2CSnTe4Mg2SnCSn2CSnTe4Mg2SnCSn2CSnTe4Mg2SnCSn2CSnTe4Mg2SnCSn2CSnTe4Mg2SnCSn2CSnTe4Mg2SnCSn2CSnTe4Mg2SnCSn2CSnTe4Mg2SnCSn2CSnTe4Mg2SnCSn2CSnTe4Mg2SnCSn2CSnTe4Mg2
_chemical_formula_sum              "H168 C384 N24 Sn96 Te96 Mg48"
_cell_length_a       60.0949
_cell_length_b       60.0892
_cell_length_c       8.03927
_cell_angle_alpha    59.4316
_cell_angle_beta     103.49
_cell_angle_gamma    120.04

_symmetry_space_group_name_H-M    'P1'
_space_group_IT_number       1

loop_
  _space_group_symop_operation_xyz
  'x, y, z'

loop_
  _atom_site_type_symbol
  _atom_site_label
  _atom_site_symmetry_multiplicity
  _atom_site_fract_x
  _atom_site_fract_y
  _atom_site_fract_z
  _atom_site_occupancy
  H   H1        1.0  0.48440  0.54820  0.30950  1.0000
  H   H2        1.0  0.44827  0.93392  0.29669  1.0000
  H   H3        1.0  0.06226  0.51307  0.27997  1.0000
  H   H4        1.0  0.51264  0.44974  0.28820  1.0000
  H   H5        1.0  0.54694  0.06351  0.28851  1.0000
  H   H6        1.0  0.93348  0.48063  0.31319  1.0000
  H   H7        1.0  0.56671  0.58596  0.31066  1.0000
  H   H8        1.0  0.40863  0.97588  0.31012  1.0000
  H   H9        1.0  0.01875  0.42749  0.33174  1.0000
  H   H10       1.0  0.43057  0.41405  0.25785  1.0000
  H   H11       1.0  0.58545  0.02287  0.24515  1.0000
  H   H12       1.0  0.97657  0.56707  0.25200  1.0000
  H   H13       1.0  0.58839  0.56052  0.32314  1.0000
  H   H14       1.0  0.43252  0.02203  0.31432  1.0000
  H   H15       1.0  0.97227  0.40552  0.32813  1.0000
  H   H16       1.0  0.40921  0.43850  0.25887  1.0000
  H   H17       1.0  0.56127  0.97625  0.25020  1.0000
  H   H18       1.0  0.02321  0.58986  0.24957  1.0000
  H   H19       1.0  0.54524  0.47902  0.31278  1.0000
  H   H20       1.0  0.51495  0.06465  0.27827  1.0000
  H   H21       1.0  0.93278  0.45223  0.26646  1.0000
  H   H22       1.0  0.45238  0.51871  0.29150  1.0000
  H   H23       1.0  0.47894  0.93533  0.26340  1.0000
  H   H24       1.0  0.06298  0.54503  0.28790  1.0000
  H   H25       1.0  0.68516  0.54793  0.30436  1.0000
  H   H26       1.0  0.44508  0.13834  0.25348  1.0000
  H   H27       1.0  0.86357  0.31365  0.18969  1.0000
  H   H28       1.0  0.30963  0.45346  0.19491  1.0000
  H   H29       1.0  0.55233  0.86376  0.29818  1.0000
  H   H30       1.0  0.13347  0.68719  0.25899  1.0000
  H   H31       1.0  0.68134  0.48699  0.25173  1.0000
  H   H32       1.0  0.51006  0.19767  0.27162  1.0000
  H   H33       1.0  0.80394  0.31460  0.24959  1.0000
  H   H34       1.0  0.31264  0.51143  0.27384  1.0000
  H   H35       1.0  0.48779  0.80284  0.29435  1.0000
  H   H36       1.0  0.19427  0.68402  0.24816  1.0000
  H   H37       1.0  0.73009  0.56516  0.30413  1.0000
  H   H38       1.0  0.42842  0.16801  0.22607  1.0000
  H   H39       1.0  0.83504  0.26728  0.20337  1.0000
  H   H40       1.0  0.26410  0.43366  0.21728  1.0000
  H   H41       1.0  0.56998  0.83856  0.27088  1.0000
  H   H42       1.0  0.16141  0.73219  0.26265  1.0000
  H   H43       1.0  0.49384  0.65719  0.29639  1.0000
  H   H44       1.0  0.34129  0.83818  0.20176  1.0000
  H   H45       1.0  0.16122  0.50766  0.26418  1.0000
  H   H46       1.0  0.50522  0.33978  0.33381  1.0000
  H   H47       1.0  0.65488  0.15938  0.33169  1.0000
  H   H48       1.0  0.83147  0.49050  0.25252  1.0000
  H   H49       1.0  0.47563  0.68495  0.28589  1.0000
  H   H50       1.0  0.31363  0.79236  0.20432  1.0000
  H   H51       1.0  0.20752  0.52621  0.26251  1.0000
  H   H52       1.0  0.52330  0.31266  0.32717  1.0000
  H   H53       1.0  0.68362  0.20596  0.32321  1.0000
  H   H54       1.0  0.78648  0.47347  0.24568  1.0000
  H   H55       1.0  0.55779  0.72195  0.24586  1.0000
  H   H56       1.0  0.28046  0.83746  0.25702  1.0000
  H   H57       1.0  0.15883  0.44596  0.23680  1.0000
  H   H58       1.0  0.44176  0.28316  0.27611  1.0000
  H   H59       1.0  0.71515  0.15849  0.28354  1.0000
  H   H60       1.0  0.83501  0.55114  0.30434  1.0000
  H   H61       1.0  0.77745  0.58425  0.31056  1.0000
  H   H62       1.0  0.40894  0.19592  0.22472  1.0000
  H   H63       1.0  0.80637  0.21887  0.22089  1.0000
  H   H64       1.0  0.21666  0.41486  0.20644  1.0000
  H   H65       1.0  0.59005  0.81278  0.24771  1.0000
  H   H66       1.0  0.18933  0.77891  0.27133  1.0000
  H   H67       1.0  0.81577  0.57872  0.31609  1.0000
  H   H68       1.0  0.41377  0.23802  0.24332  1.0000
  H   H69       1.0  0.76256  0.17896  0.25176  1.0000
  H   H70       1.0  0.17826  0.41958  0.21053  1.0000
  H   H71       1.0  0.58560  0.77033  0.23663  1.0000
  H   H72       1.0  0.23290  0.81762  0.26714  1.0000
  H   H73       1.0  0.70086  0.46113  0.21839  1.0000
  H   H74       1.0  0.53822  0.24343  0.29895  1.0000
  H   H75       1.0  0.75631  0.29408  0.28146  1.0000
  H   H76       1.0  0.29334  0.53976  0.27494  1.0000
  H   H77       1.0  0.45990  0.75455  0.30056  1.0000
  H   H78       1.0  0.24208  0.70456  0.22968  1.0000
  H   H79       1.0  0.73922  0.45587  0.22050  1.0000
  H   H80       1.0  0.54304  0.28526  0.32027  1.0000
  H   H81       1.0  0.71255  0.25419  0.31353  1.0000
  H   H82       1.0  0.25503  0.54520  0.27048  1.0000
  H   H83       1.0  0.45545  0.71164  0.29640  1.0000
  H   H84       1.0  0.28558  0.74431  0.21033  1.0000
  H   H85       1.0  0.48602  0.54715  0.81004  1.0000
  H   H86       1.0  0.45259  0.93693  0.77822  1.0000
  H   H87       1.0  0.06705  0.51601  0.77474  1.0000
  H   H88       1.0  0.51866  0.45143  0.78715  1.0000
  H   H89       1.0  0.55173  0.06472  0.79238  1.0000
  H   H90       1.0  0.93818  0.48358  0.82084  1.0000
  H   H91       1.0  0.56842  0.58722  0.80959  1.0000
  H   H92       1.0  0.41400  0.97713  0.83076  1.0000
  H   H93       1.0  0.02293  0.43017  0.83108  1.0000
  H   H94       1.0  0.43670  0.41481  0.74185  1.0000
  H   H95       1.0  0.59025  0.02363  0.75601  1.0000
  H   H96       1.0  0.98178  0.57072  0.74636  1.0000
  H   H97       1.0  0.59143  0.56392  0.81277  1.0000
  H   H98       1.0  0.43793  0.02297  0.83062  1.0000
  H   H99       1.0  0.97666  0.40862  0.82644  1.0000
  H   H100      1.0  0.41400  0.43729  0.74830  1.0000
  H   H101      1.0  0.56600  0.97776  0.75025  1.0000
  H   H102      1.0  0.02810  0.59298  0.74836  1.0000
  H   H103      1.0  0.55086  0.48202  0.80823  1.0000
  H   H104      1.0  0.52014  0.06698  0.77045  1.0000
  H   H105      1.0  0.93750  0.45554  0.76693  1.0000
  H   H106      1.0  0.45442  0.51612  0.79902  1.0000
  H   H107      1.0  0.48365  0.93748  0.75478  1.0000
  H   H108      1.0  0.06791  0.54759  0.79683  1.0000
  H   H109      1.0  0.69167  0.55801  0.78165  1.0000
  H   H110      1.0  0.44601  0.13728  0.74132  1.0000
  H   H111      1.0  0.86789  0.31608  0.69752  1.0000
  H   H112      1.0  0.31068  0.44507  0.71479  1.0000
  H   H113      1.0  0.55754  0.86569  0.79660  1.0000
  H   H114      1.0  0.13591  0.69107  0.76530  1.0000
  H   H115      1.0  0.68851  0.49625  0.74722  1.0000
  H   H116      1.0  0.51006  0.19468  0.77456  1.0000
  H   H117      1.0  0.80761  0.31712  0.74639  1.0000
  H   H118      1.0  0.31407  0.50547  0.76422  1.0000
  H   H119      1.0  0.49277  0.80511  0.79842  1.0000
  H   H120      1.0  0.19678  0.68919  0.74545  1.0000
  H   H121      1.0  0.73744  0.57542  0.78672  1.0000
  H   H122      1.0  0.42880  0.16740  0.72288  1.0000
  H   H123      1.0  0.83982  0.27038  0.70484  1.0000
  H   H124      1.0  0.26480  0.42592  0.73099  1.0000
  H   H125      1.0  0.57470  0.83997  0.76497  1.0000
  H   H126      1.0  0.16394  0.73684  0.76727  1.0000
  H   H127      1.0  0.49508  0.65850  0.78704  1.0000
  H   H128      1.0  0.34368  0.84235  0.69892  1.0000
  H   H129      1.0  0.16475  0.50399  0.76116  1.0000
  H   H130      1.0  0.51045  0.34008  0.82355  1.0000
  H   H131      1.0  0.65995  0.15959  0.85384  1.0000
  H   H132      1.0  0.83719  0.49722  0.75896  1.0000
  H   H133      1.0  0.47786  0.68704  0.77658  1.0000
  H   H134      1.0  0.31606  0.79641  0.71074  1.0000
  H   H135      1.0  0.20951  0.52062  0.76151  1.0000
  H   H136      1.0  0.52701  0.31126  0.82544  1.0000
  H   H137      1.0  0.68823  0.20623  0.83851  1.0000
  H   H138      1.0  0.79308  0.48206  0.74168  1.0000
  H   H139      1.0  0.55984  0.72219  0.74063  1.0000
  H   H140      1.0  0.28327  0.84290  0.74964  1.0000
  H   H141      1.0  0.16016  0.44066  0.73283  1.0000
  H   H142      1.0  0.44579  0.28407  0.77321  1.0000
  H   H143      1.0  0.72058  0.15980  0.79435  1.0000
  H   H144      1.0  0.84208  0.55926  0.80515  1.0000
  H   H145      1.0  0.78487  0.59343  0.80441  1.0000
  H   H146      1.0  0.41047  0.19659  0.72025  1.0000
  H   H147      1.0  0.81156  0.22204  0.71855  1.0000
  H   H148      1.0  0.21739  0.40760  0.71949  1.0000
  H   H149      1.0  0.59386  0.81332  0.74356  1.0000
  H   H150      1.0  0.19197  0.78444  0.76418  1.0000
  H   H151      1.0  0.82296  0.58733  0.81424  1.0000
  H   H152      1.0  0.41668  0.23904  0.74110  1.0000
  H   H153      1.0  0.76813  0.18147  0.75441  1.0000
  H   H154      1.0  0.17930  0.41331  0.71598  1.0000
  H   H155      1.0  0.58848  0.77055  0.73104  1.0000
  H   H156      1.0  0.23558  0.82341  0.75576  1.0000
  H   H157      1.0  0.70768  0.47013  0.71536  1.0000
  H   H158      1.0  0.53920  0.23981  0.80565  1.0000
  H   H159      1.0  0.75997  0.29552  0.78472  1.0000
  H   H160      1.0  0.29504  0.53367  0.77180  1.0000
  H   H161      1.0  0.46400  0.75718  0.80009  1.0000
  H   H162      1.0  0.24441  0.70968  0.72451  1.0000
  H   H163      1.0  0.74593  0.46451  0.71912  1.0000
  H   H164      1.0  0.54535  0.28233  0.82610  1.0000
  H   H165      1.0  0.71659  0.25487  0.82295  1.0000
  H   H166      1.0  0.25693  0.53931  0.76862  1.0000
  H   H167      1.0  0.45863  0.71424  0.79020  1.0000
  H   H168      1.0  0.28802  0.74897  0.71116  1.0000
  C   C1        1.0  0.47353  0.99899  0.29390  1.0000
  C   C2        1.0  0.99700  0.47257  0.30199  1.0000
  C   C3        1.0  0.52281  0.52185  0.30364  1.0000
  C   C4        1.0  0.52052  0.99974  0.26730  1.0000
  C   C5        1.0  0.99834  0.52257  0.27501  1.0000
  C   C6        1.0  0.47437  0.47704  0.28181  1.0000
  C   C7        1.0  0.47491  0.50058  0.28818  1.0000
  C   C8        1.0  0.49667  0.97567  0.27300  1.0000
  C   C9        1.0  0.02194  0.52194  0.28097  1.0000
  C   C10       1.0  0.52218  0.49789  0.30230  1.0000
  C   C11       1.0  0.49739  0.02314  0.28751  1.0000
  C   C12       1.0  0.97341  0.47338  0.29313  1.0000
  C   C13       1.0  0.49985  0.52368  0.29919  1.0000
  C   C14       1.0  0.47255  0.97514  0.28911  1.0000
  C   C15       1.0  0.02127  0.49645  0.29241  1.0000
  C   C16       1.0  0.49731  0.47517  0.28708  1.0000
  C   C17       1.0  0.52162  0.02351  0.27473  1.0000
  C   C18       1.0  0.97408  0.49865  0.28538  1.0000
  C   C19       1.0  0.50183  0.54732  0.30495  1.0000
  C   C20       1.0  0.44873  0.95207  0.29836  1.0000
  C   C21       1.0  0.04357  0.49493  0.29124  1.0000
  C   C22       1.0  0.49531  0.45146  0.28219  1.0000
  C   C23       1.0  0.54564  0.04594  0.27316  1.0000
  C   C24       1.0  0.95175  0.49961  0.29346  1.0000
  C   C25       1.0  0.52565  0.57035  0.30831  1.0000
  C   C26       1.0  0.42509  0.95155  0.30342  1.0000
  C   C27       1.0  0.04312  0.47012  0.30878  1.0000
  C   C28       1.0  0.47147  0.42858  0.27706  1.0000
  C   C29       1.0  0.56895  0.04590  0.26612  1.0000
  C   C30       1.0  0.95178  0.52390  0.28200  1.0000
  C   C31       1.0  0.54793  0.56856  0.31138  1.0000
  C   C32       1.0  0.42618  0.97508  0.30662  1.0000
  C   C33       1.0  0.01952  0.44647  0.32421  1.0000
  C   C34       1.0  0.44921  0.43072  0.26830  1.0000
  C   C35       1.0  0.56780  0.02294  0.25649  1.0000
  C   C36       1.0  0.97551  0.54774  0.26335  1.0000
  C   C37       1.0  0.54713  0.54467  0.31097  1.0000
  C   C38       1.0  0.44991  0.99880  0.30377  1.0000
  C   C39       1.0  0.99620  0.44742  0.31642  1.0000
  C   C40       1.0  0.45008  0.45453  0.27089  1.0000
  C   C41       1.0  0.54399  0.99974  0.25624  1.0000
  C   C42       1.0  0.99893  0.54751  0.26276  1.0000
  C   C43       1.0  0.57008  0.54319  0.31572  1.0000
  C   C44       1.0  0.45067  0.02278  0.30452  1.0000
  C   C45       1.0  0.97221  0.42438  0.31547  1.0000
  C   C46       1.0  0.42720  0.45591  0.26863  1.0000
  C   C47       1.0  0.54315  0.97608  0.25207  1.0000
  C   C48       1.0  0.02296  0.57126  0.25498  1.0000
  C   C49       1.0  0.56938  0.51942  0.32102  1.0000
  C   C50       1.0  0.47385  0.04660  0.29506  1.0000
  C   C51       1.0  0.94928  0.42600  0.29312  1.0000
  C   C52       1.0  0.42750  0.47856  0.27796  1.0000
  C   C53       1.0  0.51996  0.95258  0.25883  1.0000
  C   C54       1.0  0.04586  0.57022  0.26642  1.0000
  C   C55       1.0  0.54523  0.49692  0.31534  1.0000
  C   C56       1.0  0.49688  0.04592  0.28863  1.0000
  C   C57       1.0  0.95050  0.45068  0.28464  1.0000
  C   C58       1.0  0.45180  0.50089  0.28451  1.0000
  C   C59       1.0  0.49700  0.95324  0.26552  1.0000
  C   C60       1.0  0.04486  0.54533  0.28026  1.0000
  C   C61       1.0  0.68108  0.52800  0.30309  1.0000
  C   C62       1.0  0.46529  0.15446  0.24582  1.0000
  C   C63       1.0  0.84798  0.31593  0.21795  1.0000
  C   C64       1.0  0.31312  0.46926  0.24152  1.0000
  C   C65       1.0  0.53233  0.84824  0.29288  1.0000
  C   C66       1.0  0.14948  0.68315  0.26015  1.0000
  C   C67       1.0  0.70339  0.52607  0.28051  1.0000
  C   C68       1.0  0.46903  0.18028  0.24807  1.0000
  C   C69       1.0  0.82200  0.29334  0.22498  1.0000
  C   C70       1.0  0.29068  0.47226  0.24688  1.0000
  C   C71       1.0  0.52905  0.82319  0.28309  1.0000
  C   C72       1.0  0.17535  0.70581  0.25558  1.0000
  C   C73       1.0  0.70062  0.50294  0.26028  1.0000
  C   C74       1.0  0.49358  0.20101  0.26395  1.0000
  C   C75       1.0  0.80055  0.29544  0.24401  1.0000
  C   C76       1.0  0.29339  0.49581  0.26144  1.0000
  C   C77       1.0  0.50453  0.80097  0.28545  1.0000
  C   C78       1.0  0.19713  0.70327  0.24988  1.0000
  C   C79       1.0  0.72216  0.50040  0.25054  1.0000
  C   C80       1.0  0.49674  0.22503  0.27373  1.0000
  C   C81       1.0  0.77562  0.27326  0.25959  1.0000
  C   C82       1.0  0.27192  0.49923  0.25924  1.0000
  C   C83       1.0  0.50161  0.77666  0.28082  1.0000
  C   C84       1.0  0.22193  0.72520  0.24315  1.0000
  C   C85       1.0  0.74732  0.52166  0.26351  1.0000
  C   C86       1.0  0.47463  0.22867  0.26570  1.0000
  C   C87       1.0  0.77201  0.24785  0.25937  1.0000
  C   C88       1.0  0.24679  0.47794  0.24684  1.0000
  C   C89       1.0  0.52401  0.77476  0.26988  1.0000
  C   C90       1.0  0.22499  0.75030  0.24499  1.0000
  C   C91       1.0  0.75020  0.54570  0.27846  1.0000
  C   C92       1.0  0.44968  0.20778  0.24785  1.0000
  C   C93       1.0  0.79380  0.24573  0.23919  1.0000
  C   C94       1.0  0.24396  0.45372  0.23476  1.0000
  C   C95       1.0  0.54900  0.79760  0.26444  1.0000
  C   C96       1.0  0.20282  0.75266  0.25413  1.0000
  C   C97       1.0  0.72810  0.54752  0.28538  1.0000
  C   C98       1.0  0.44740  0.18391  0.24036  1.0000
  C   C99       1.0  0.81842  0.26870  0.22066  1.0000
  C   C100      1.0  0.26605  0.45157  0.23236  1.0000
  C   C101      1.0  0.55100  0.82129  0.27228  1.0000
  C   C102      1.0  0.17836  0.73042  0.25677  1.0000
  C   C103      1.0  0.51364  0.67484  0.27253  1.0000
  C   C104      1.0  0.32534  0.83938  0.23558  1.0000
  C   C105      1.0  0.15801  0.48774  0.26716  1.0000
  C   C106      1.0  0.48550  0.32491  0.31685  1.0000
  C   C107      1.0  0.67092  0.15695  0.31197  1.0000
  C   C108      1.0  0.83550  0.50891  0.27317  1.0000
  C   C109      1.0  0.51656  0.70094  0.26539  1.0000
  C   C110      1.0  0.29959  0.81718  0.23156  1.0000
  C   C111      1.0  0.18083  0.48600  0.25252  1.0000
  C   C112      1.0  0.48267  0.30040  0.30214  1.0000
  C   C113      1.0  0.69684  0.17978  0.30514  1.0000
  C   C114      1.0  0.81308  0.51214  0.27487  1.0000
  C   C115      1.0  0.49460  0.70276  0.27673  1.0000
  C   C116      1.0  0.29662  0.79337  0.21896  1.0000
  C   C117      1.0  0.20546  0.50771  0.25460  1.0000
  C   C118      1.0  0.50442  0.29701  0.30916  1.0000
  C   C119      1.0  0.70033  0.20440  0.30936  1.0000
  C   C120      1.0  0.78849  0.49160  0.25831  1.0000
  C   C121      1.0  0.49652  0.72704  0.27626  1.0000
  C   C122      1.0  0.27219  0.77075  0.22594  1.0000
  C   C123      1.0  0.22759  0.50544  0.25378  1.0000
  C   C124      1.0  0.50230  0.27357  0.29662  1.0000
  C   C125      1.0  0.72501  0.22717  0.29535  1.0000
  C   C126      1.0  0.76647  0.49434  0.25342  1.0000
  C   C127      1.0  0.52147  0.75020  0.26631  1.0000
  C   C128      1.0  0.24996  0.77270  0.23951  1.0000
  C   C129      1.0  0.22477  0.48089  0.24627  1.0000
  C   C130      1.0  0.47741  0.25281  0.27640  1.0000
  C   C131      1.0  0.74685  0.22497  0.27711  1.0000
  C   C132      1.0  0.76932  0.51861  0.26520  1.0000
  C   C133      1.0  0.54389  0.74837  0.25472  1.0000
  C   C134      1.0  0.25297  0.79740  0.24671  1.0000
  C   C135      1.0  0.19963  0.45935  0.23651  1.0000
  C   C136      1.0  0.45524  0.25634  0.26833  1.0000
  C   C137      1.0  0.74329  0.19967  0.27555  1.0000
  C   C138      1.0  0.79441  0.53941  0.28403  1.0000
  C   C139      1.0  0.54104  0.72388  0.25352  1.0000
  C   C140      1.0  0.27771  0.81897  0.24542  1.0000
  C   C141      1.0  0.17813  0.46215  0.24203  1.0000
  C   C142      1.0  0.45830  0.28007  0.28095  1.0000
  C   C143      1.0  0.71838  0.17760  0.28895  1.0000
  C   C144      1.0  0.81580  0.53578  0.28856  1.0000
  C   C145      1.0  0.77555  0.56644  0.29452  1.0000
  C   C146      1.0  0.42782  0.21185  0.23975  1.0000
  C   C147      1.0  0.78970  0.22013  0.23855  1.0000
  C   C148      1.0  0.21861  0.43278  0.22131  1.0000
  C   C149      1.0  0.57112  0.79528  0.25219  1.0000
  C   C150      1.0  0.20634  0.77763  0.26071  1.0000
  C   C151      1.0  0.79672  0.56336  0.29799  1.0000
  C   C152      1.0  0.43048  0.23513  0.24912  1.0000
  C   C153      1.0  0.76552  0.19805  0.25620  1.0000
  C   C154      1.0  0.19737  0.43544  0.22264  1.0000
  C   C155      1.0  0.56869  0.77180  0.24692  1.0000
  C   C156      1.0  0.23037  0.79902  0.25797  1.0000
  C   C157      1.0  0.71996  0.47673  0.23358  1.0000
  C   C158      1.0  0.52150  0.24630  0.29295  1.0000
  C   C159      1.0  0.75337  0.27488  0.27867  1.0000
  C   C160      1.0  0.27418  0.52365  0.26621  1.0000
  C   C161      1.0  0.47682  0.75316  0.28947  1.0000
  C   C162      1.0  0.24457  0.72358  0.23271  1.0000
  C   C163      1.0  0.74115  0.47375  0.23571  1.0000
  C   C164      1.0  0.52415  0.26946  0.30400  1.0000
  C   C165      1.0  0.72917  0.25279  0.29644  1.0000
  C   C166      1.0  0.25300  0.52673  0.26257  1.0000
  C   C167      1.0  0.47440  0.72939  0.28808  1.0000
  C   C168      1.0  0.26860  0.74554  0.22222  1.0000
  C   C169      1.0  0.47855  0.00086  0.79282  1.0000
  C   C170      1.0  0.00168  0.47541  0.80518  1.0000
  C   C171      1.0  0.52609  0.52243  0.80661  1.0000
  C   C172      1.0  0.52530  0.00142  0.76520  1.0000
  C   C173      1.0  0.00321  0.52545  0.77804  1.0000
  C   C174      1.0  0.47872  0.47693  0.78100  1.0000
  C   C175      1.0  0.47824  0.49977  0.79067  1.0000
  C   C176      1.0  0.50138  0.97762  0.76722  1.0000
  C   C177      1.0  0.02683  0.52471  0.78491  1.0000
  C   C178      1.0  0.52644  0.49905  0.80367  1.0000
  C   C179      1.0  0.50242  0.02504  0.78484  1.0000
  C   C180      1.0  0.97808  0.47627  0.79699  1.0000
  C   C181      1.0  0.50266  0.52336  0.80295  1.0000
  C   C182      1.0  0.47730  0.97721  0.78326  1.0000
  C   C183      1.0  0.02608  0.49925  0.79456  1.0000
  C   C184      1.0  0.50210  0.47585  0.78711  1.0000
  C   C185      1.0  0.52649  0.02516  0.77320  1.0000
  C   C186      1.0  0.97882  0.50158  0.78927  1.0000
  C   C187      1.0  0.50381  0.54674  0.80787  1.0000
  C   C188      1.0  0.45333  0.95456  0.78898  1.0000
  C   C189      1.0  0.04831  0.49776  0.78885  1.0000
  C   C190      1.0  0.50100  0.45267  0.77958  1.0000
  C   C191      1.0  0.55049  0.04725  0.77619  1.0000
  C   C192      1.0  0.95652  0.50268  0.79762  1.0000
  C   C193      1.0  0.52724  0.57022  0.81140  1.0000
  C   C194      1.0  0.42988  0.95385  0.80288  1.0000
  C   C195      1.0  0.04765  0.47285  0.80584  1.0000
  C   C196      1.0  0.47758  0.42983  0.76868  1.0000
  C   C197      1.0  0.57375  0.04688  0.77415  1.0000
  C   C198      1.0  0.95672  0.52731  0.78243  1.0000
  C   C199      1.0  0.54993  0.56931  0.81274  1.0000
  C   C200      1.0  0.43130  0.97674  0.81596  1.0000
  C   C201      1.0  0.02389  0.44925  0.82339  1.0000
  C   C202      1.0  0.45495  0.43137  0.75786  1.0000
  C   C203      1.0  0.57260  0.02396  0.76373  1.0000
  C   C204      1.0  0.98055  0.55110  0.76152  1.0000
  C   C205      1.0  0.54996  0.54593  0.81134  1.0000
  C   C206      1.0  0.45511  0.00044  0.80930  1.0000
  C   C207      1.0  0.00068  0.45028  0.81760  1.0000
  C   C208      1.0  0.45492  0.45437  0.76498  1.0000
  C   C209      1.0  0.54878  0.00120  0.75754  1.0000
  C   C210      1.0  0.00388  0.55054  0.76364  1.0000
  C   C211      1.0  0.57344  0.54591  0.80971  1.0000
  C   C212      1.0  0.45595  0.02409  0.81380  1.0000
  C   C213      1.0  0.97661  0.42733  0.81640  1.0000
  C   C214      1.0  0.43152  0.45480  0.76173  1.0000
  C   C215      1.0  0.54789  0.97772  0.75079  1.0000
  C   C216      1.0  0.02788  0.57427  0.75568  1.0000
  C   C217      1.0  0.57372  0.52283  0.81232  1.0000
  C   C218      1.0  0.47913  0.04814  0.79866  1.0000
  C   C219      1.0  0.95372  0.42898  0.79507  1.0000
  C   C220      1.0  0.43078  0.47651  0.77609  1.0000
  C   C221      1.0  0.52469  0.95453  0.75326  1.0000
  C   C222      1.0  0.05078  0.57308  0.77012  1.0000
  C   C223      1.0  0.55005  0.49941  0.81216  1.0000
  C   C224      1.0  0.50210  0.04794  0.78563  1.0000
  C   C225      1.0  0.95511  0.45373  0.78706  1.0000
  C   C226      1.0  0.45463  0.49899  0.78773  1.0000
  C   C227      1.0  0.50170  0.95526  0.75881  1.0000
  C   C228      1.0  0.04978  0.54804  0.78625  1.0000
  C   C229      1.0  0.68810  0.53808  0.78283  1.0000
  C   C230      1.0  0.46598  0.15317  0.74320  1.0000
  C   C231      1.0  0.85222  0.31857  0.72252  1.0000
  C   C232      1.0  0.31424  0.46199  0.75028  1.0000
  C   C233      1.0  0.53755  0.85040  0.78853  1.0000
  C   C234      1.0  0.15222  0.68744  0.76713  1.0000
  C   C235      1.0  0.71068  0.53589  0.76887  1.0000
  C   C236      1.0  0.46931  0.17865  0.74712  1.0000
  C   C237      1.0  0.82629  0.29613  0.72536  1.0000
  C   C238      1.0  0.29177  0.46535  0.74992  1.0000
  C   C239      1.0  0.53393  0.82504  0.78127  1.0000
  C   C240      1.0  0.17792  0.71059  0.75885  1.0000
  C   C241      1.0  0.70782  0.51220  0.75520  1.0000
  C   C242      1.0  0.49401  0.19875  0.76581  1.0000
  C   C243      1.0  0.80458  0.29803  0.74163  1.0000
  C   C244      1.0  0.29469  0.48959  0.75657  1.0000
  C   C245      1.0  0.50916  0.80290  0.78688  1.0000
  C   C246      1.0  0.19969  0.70831  0.74943  1.0000
  C   C247      1.0  0.72922  0.50916  0.75063  1.0000
  C   C248      1.0  0.49785  0.22290  0.77642  1.0000
  C   C249      1.0  0.77977  0.27563  0.75669  1.0000
  C   C250      1.0  0.27336  0.49323  0.75421  1.0000
  C   C251      1.0  0.50570  0.77853  0.78038  1.0000
  C   C252      1.0  0.22446  0.73020  0.74230  1.0000
  C   C253      1.0  0.75439  0.53024  0.76518  1.0000
  C   C254      1.0  0.47615  0.22724  0.76735  1.0000
  C   C255      1.0  0.77649  0.25038  0.75588  1.0000
  C   C256      1.0  0.24811  0.47189  0.74397  1.0000
  C   C257      1.0  0.52778  0.77629  0.76678  1.0000
  C   C258      1.0  0.22752  0.75523  0.74513  1.0000
  C   C259      1.0  0.75739  0.55465  0.77581  1.0000
  C   C260      1.0  0.45093  0.20690  0.74749  1.0000
  C   C261      1.0  0.79851  0.24860  0.73622  1.0000
  C   C262      1.0  0.24507  0.44719  0.73735  1.0000
  C   C263      1.0  0.55299  0.79884  0.76067  1.0000
  C   C264      1.0  0.20537  0.75764  0.75405  1.0000
  C   C265      1.0  0.73537  0.55719  0.77511  1.0000
  C   C266      1.0  0.44799  0.18286  0.73853  1.0000
  C   C267      1.0  0.82302  0.27164  0.72038  1.0000
  C   C268      1.0  0.26704  0.44446  0.73937  1.0000
  C   C269      1.0  0.55555  0.82279  0.76851  1.0000
  C   C270      1.0  0.18089  0.73521  0.75961  1.0000
  C   C271      1.0  0.51510  0.67558  0.76710  1.0000
  C   C272      1.0  0.32804  0.84367  0.73597  1.0000
  C   C273      1.0  0.16027  0.48359  0.76481  1.0000
  C   C274      1.0  0.49048  0.32530  0.81003  1.0000
  C   C275      1.0  0.67584  0.15734  0.82956  1.0000
  C   C276      1.0  0.84192  0.51634  0.77363  1.0000
  C   C277      1.0  0.51866  0.70200  0.75915  1.0000
  C   C278      1.0  0.30217  0.82180  0.73186  1.0000
  C   C279      1.0  0.18244  0.48068  0.74991  1.0000
  C   C280      1.0  0.48666  0.30009  0.79994  1.0000
  C   C281      1.0  0.70178  0.18065  0.81630  1.0000
  C   C282      1.0  0.81989  0.52031  0.77467  1.0000
  C   C283      1.0  0.49702  0.70447  0.76927  1.0000
  C   C284      1.0  0.29911  0.79774  0.72237  1.0000
  C   C285      1.0  0.20729  0.50214  0.75223  1.0000
  C   C286      1.0  0.50789  0.29585  0.80850  1.0000
  C   C287      1.0  0.70502  0.20529  0.81895  1.0000
  C   C288      1.0  0.79518  0.49995  0.75788  1.0000
  C   C289      1.0  0.49951  0.72885  0.77054  1.0000
  C   C290      1.0  0.27465  0.77534  0.72800  1.0000
  C   C291      1.0  0.22927  0.49976  0.75000  1.0000
  C   C292      1.0  0.50492  0.27189  0.79839  1.0000
  C   C293      1.0  0.72949  0.22868  0.79842  1.0000
  C   C294      1.0  0.77325  0.50267  0.75539  1.0000
  C   C295      1.0  0.52470  0.75163  0.76160  1.0000
  C   C296      1.0  0.25251  0.77759  0.73957  1.0000
  C   C297      1.0  0.22620  0.47510  0.74255  1.0000
  C   C298      1.0  0.47970  0.25162  0.77840  1.0000
  C   C299      1.0  0.75149  0.22711  0.77588  1.0000
  C   C300      1.0  0.77630  0.52692  0.76843  1.0000
  C   C301      1.0  0.54677  0.74928  0.74945  1.0000
  C   C302      1.0  0.25562  0.80255  0.74359  1.0000
  C   C303      1.0  0.20091  0.45365  0.73415  1.0000
  C   C304      1.0  0.45801  0.25598  0.76975  1.0000
  C   C305      1.0  0.74827  0.20175  0.77694  1.0000
  C   C306      1.0  0.80148  0.54772  0.78571  1.0000
  C   C307      1.0  0.54335  0.72455  0.74808  1.0000
  C   C308      1.0  0.28042  0.82410  0.74175  1.0000
  C   C309      1.0  0.17949  0.45675  0.73891  1.0000
  C   C310      1.0  0.46188  0.28011  0.78081  1.0000
  C   C311      1.0  0.72349  0.17905  0.79633  1.0000
  C   C312      1.0  0.82283  0.54399  0.78908  1.0000
  C   C313      1.0  0.78280  0.57530  0.79165  1.0000
  C   C314      1.0  0.42957  0.21189  0.73817  1.0000
  C   C315      1.0  0.79475  0.22307  0.73626  1.0000
  C   C316      1.0  0.21958  0.42612  0.72766  1.0000
  C   C317      1.0  0.57477  0.79605  0.74761  1.0000
  C   C318      1.0  0.20898  0.78294  0.75628  1.0000
  C   C319      1.0  0.80386  0.57185  0.79790  1.0000
  C   C320      1.0  0.43295  0.23535  0.74883  1.0000
  C   C321      1.0  0.77073  0.20061  0.75634  1.0000
  C   C322      1.0  0.19849  0.42930  0.72527  1.0000
  C   C323      1.0  0.57181  0.77238  0.74185  1.0000
  C   C324      1.0  0.23304  0.80447  0.75125  1.0000
  C   C325      1.0  0.72678  0.48537  0.73392  1.0000
  C   C326      1.0  0.52291  0.24347  0.79772  1.0000
  C   C327      1.0  0.75732  0.27662  0.77934  1.0000
  C   C328      1.0  0.27586  0.51772  0.76177  1.0000
  C   C329      1.0  0.48066  0.75540  0.78821  1.0000
  C   C330      1.0  0.24701  0.72854  0.73047  1.0000
  C   C331      1.0  0.74790  0.48228  0.73604  1.0000
  C   C332      1.0  0.52629  0.26696  0.80802  1.0000
  C   C333      1.0  0.73330  0.25410  0.80038  1.0000
  C   C334      1.0  0.25476  0.52088  0.75936  1.0000
  C   C335      1.0  0.47772  0.73168  0.78343  1.0000
  C   C336      1.0  0.27105  0.75024  0.72287  1.0000
  N   N1        1.0  0.65793  0.50734  0.32626  1.0000
  N   N2        1.0  0.48426  0.15030  0.24271  1.0000
  N   N3        1.0  0.85179  0.33665  0.24942  1.0000
  N   N4        1.0  0.33559  0.48471  0.28623  1.0000
  N   N5        1.0  0.51298  0.85172  0.29720  1.0000
  N   N6        1.0  0.14556  0.65935  0.27004  1.0000
  N   N7        1.0  0.53312  0.67216  0.26012  1.0000
  N   N8        1.0  0.32856  0.85875  0.27941  1.0000
  N   N9        1.0  0.13533  0.46638  0.28978  1.0000
  N   N10       1.0  0.46587  0.32854  0.31214  1.0000
  N   N11       1.0  0.66721  0.13492  0.29734  1.0000
  N   N12       1.0  0.85842  0.52700  0.29203  1.0000
  N   N13       1.0  0.66522  0.51717  0.80260  1.0000
  N   N14       1.0  0.48561  0.14945  0.74887  1.0000
  N   N15       1.0  0.85603  0.33935  0.75340  1.0000
  N   N16       1.0  0.33674  0.47845  0.78797  1.0000
  N   N17       1.0  0.51825  0.85433  0.78679  1.0000
  N   N18       1.0  0.14895  0.66369  0.78035  1.0000
  N   N19       1.0  0.53432  0.67212  0.75972  1.0000
  N   N20       1.0  0.33180  0.86296  0.78264  1.0000
  N   N21       1.0  0.13698  0.46321  0.78854  1.0000
  N   N22       1.0  0.47125  0.32957  0.80427  1.0000
  N   N23       1.0  0.67188  0.13527  0.81453  1.0000
  N   N24       1.0  0.86518  0.53428  0.78793  1.0000
  C  Sn1       1.0  0.61698  0.53982  0.15942  1.0000
  C   C337      1.0  0.59469  0.51898  0.27599  1.0000
  C  Sn2       1.0  0.59428  0.49405  0.43984  1.0000
  C  Sn3       1.0  0.61662  0.48987  0.48827  1.0000
  C   C338      1.0  0.63889  0.51070  0.37176  1.0000
  C  Sn4       1.0  0.63932  0.53564  0.20785  1.0000
  O  Te1       1.0  0.61314  0.49464  0.99630  1.0000
  O  Te2       1.0  0.57177  0.47352  0.55413  1.0000
  O  Te3       1.0  0.61663  0.46508  0.65154  1.0000
  O  Te4       1.0  0.66181  0.55617  0.09362  1.0000
  Mg  Mg1       1.0  0.58133  0.44336  0.76181  1.0000
  Mg  Mg2       1.0  0.64847  0.51640  0.88598  1.0000
  C  Sn5       1.0  0.45697  0.09007  0.15017  1.0000
  C   C339      1.0  0.47495  0.07926  0.22064  1.0000
  C  Sn6       1.0  0.49546  0.08975  0.32873  1.0000
  C  Sn7       1.0  0.49804  0.11148  0.36731  1.0000
  C   C340      1.0  0.48007  0.12227  0.29689  1.0000
  C  Sn8       1.0  0.45955  0.11180  0.18875  1.0000
  O  Te5       1.0  0.43661  0.07926  0.04244  1.0000
  O  Te6       1.0  0.51320  0.07862  0.39759  1.0000
  O  Te7       1.0  0.51842  0.12228  0.47513  1.0000
  O  Te8       1.0  0.44181  0.12291  0.11994  1.0000
  Mg  Mg3       1.0  0.53763  0.10027  0.53761  1.0000
  Mg  Mg4       1.0  0.41357  0.03133  0.98000  1.0000
  C  Sn9       1.0  0.89484  0.39298  0.34797  1.0000
  C   C341      1.0  0.91973  0.39799  0.33034  1.0000
  C  Sn10      1.0  0.92390  0.38422  0.25225  1.0000
  C  Sn11      1.0  0.90275  0.36505  0.19038  1.0000
  C   C342      1.0  0.87788  0.36005  0.20799  1.0000
  C  Sn12      1.0  0.87369  0.37382  0.28610  1.0000
  O  Te9       1.0  0.89113  0.40699  0.42645  1.0000
  O  Te10      1.0  0.94896  0.38956  0.23615  1.0000
  O  Te11      1.0  0.90649  0.35104  0.11186  1.0000
  O  Te12      1.0  0.84865  0.36849  0.30219  1.0000
  Mg  Mg5       1.0  0.94420  0.36534  0.11972  1.0000
  Mg  Mg6       1.0  0.85339  0.39270  0.41849  1.0000
  C  Sn13      1.0  0.38740  0.50937  0.23679  1.0000
  C   C343      1.0  0.36208  0.48919  0.23361  1.0000
  C  Sn14      1.0  0.35650  0.46139  0.27339  1.0000
  C  Sn15      1.0  0.37665  0.45359  0.31739  1.0000
  C   C344      1.0  0.40196  0.47376  0.32058  1.0000
  C  Sn16      1.0  0.40756  0.50157  0.28078  1.0000
  O  Te13      1.0  0.39254  0.53704  0.19658  1.0000
  O  Te14      1.0  0.33103  0.44159  0.26928  1.0000
  O  Te15      1.0  0.37150  0.42589  0.35761  1.0000
  O  Te16      1.0  0.43301  0.52136  0.28492  1.0000
  Mg  Mg7       1.0  0.33374  0.40654  0.33422  1.0000
  Mg  Mg8       1.0  0.43032  0.55640  0.22010  1.0000
  C  Sn17      1.0  0.54378  0.90848  0.26012  1.0000
  C   C345      1.0  0.52358  0.88025  0.33023  1.0000
  C  Sn18      1.0  0.49905  0.87486  0.36136  1.0000
  C  Sn19      1.0  0.49462  0.89816  0.32146  1.0000
  C   C346      1.0  0.51481  0.92637  0.25137  1.0000
  C  Sn20      1.0  0.53934  0.93178  0.22022  1.0000
  O  Te17      1.0  0.56814  0.91336  0.23006  1.0000
  O  Te18      1.0  0.47916  0.84646  0.43160  1.0000
  O  Te19      1.0  0.47023  0.89325  0.35158  1.0000
  O  Te20      1.0  0.55922  0.96016  0.15000  1.0000
  Mg  Mg9       1.0  0.44935  0.85080  0.44895  1.0000
  Mg  Mg10      1.0  0.58904  0.95585  0.13250  1.0000
  C  Sn21      1.0  0.08435  0.62908  0.09335  1.0000
  C   C347      1.0  0.07503  0.59913  0.21065  1.0000
  C  Sn22      1.0  0.08804  0.58821  0.37606  1.0000
  C  Sn23      1.0  0.11084  0.60763  0.42533  1.0000
  C   C348      1.0  0.12015  0.63756  0.30809  1.0000
  C  Sn24      1.0  0.10715  0.64850  0.14263  1.0000
  O  Te21      1.0  0.06723  0.56957  0.92868  1.0000
  O  Te22      1.0  0.07836  0.55818  0.49104  1.0000
  O  Te23      1.0  0.12416  0.59716  0.59016  1.0000
  O  Te24      1.0  0.11682  0.67851  0.02770  1.0000
  Mg  Mg11      1.0  0.10334  0.55450  0.70087  1.0000
  Mg  Mg12      1.0  0.08804  0.61227  0.81791  1.0000
  C  Sn25      1.0  0.55481  0.63950  0.29365  1.0000
  C   C349      1.0  0.53620  0.64938  0.22828  1.0000
  C  Sn26      1.0  0.51068  0.63079  0.21289  1.0000
  C  Sn27      1.0  0.50362  0.60170  0.26402  1.0000
  C   C350      1.0  0.52223  0.59183  0.32937  1.0000
  C  Sn28      1.0  0.54775  0.61042  0.34478  1.0000
  O  Te25      1.0  0.58020  0.65847  0.30790  1.0000
  O  Te26      1.0  0.49242  0.64117  0.14711  1.0000
  O  Te27      1.0  0.47821  0.58274  0.24971  1.0000
  O  Te28      1.0  0.56600  0.60005  0.41054  1.0000
  Mg  Mg13      1.0  0.46030  0.60702  0.15266  1.0000
  Mg  Mg14      1.0  0.59812  0.63417  0.40515  1.0000
  C  Sn29      1.0  0.39557  0.90379  0.21674  1.0000
  C   C351      1.0  0.39932  0.92665  0.24363  1.0000
  C  Sn30      1.0  0.37933  0.92502  0.31665  1.0000
  C  Sn31      1.0  0.35507  0.90002  0.36392  1.0000
  C   C352      1.0  0.35133  0.87718  0.33706  1.0000
  C  Sn32      1.0  0.37131  0.87879  0.26400  1.0000
  O  Te29      1.0  0.41583  0.90589  0.14355  1.0000
  O  Te30      1.0  0.38354  0.94816  0.34222  1.0000
  O  Te31      1.0  0.33481  0.89794  0.43715  1.0000
  O  Te32      1.0  0.36711  0.85567  0.23847  1.0000
  Mg  Mg15      1.0  0.34998  0.93509  0.44635  1.0000
  Mg  Mg16      1.0  0.40066  0.86871  0.13445  1.0000
  C  Sn33      1.0  0.08995  0.49313  0.12545  1.0000
  C   C353      1.0  0.06881  0.47143  0.25280  1.0000
  C  Sn34      1.0  0.07075  0.44816  0.41970  1.0000
  C  Sn35      1.0  0.09432  0.44655  0.46025  1.0000
  C   C354      1.0  0.11544  0.46824  0.33297  1.0000
  C  Sn36      1.0  0.11352  0.49152  0.16600  1.0000
  O  Te33      1.0  0.08377  0.44625  0.95947  1.0000
  O  Te34      1.0  0.04934  0.42672  0.54480  1.0000
  O  Te35      1.0  0.09668  0.42346  0.62639  1.0000
  O  Te36      1.0  0.13491  0.51295  0.04097  1.0000
  Mg  Mg17      1.0  0.06212  0.39960  0.75241  1.0000
  Mg  Mg18      1.0  0.11835  0.47014  0.83338  1.0000
  C  Sn37      1.0  0.49029  0.40264  0.16881  1.0000
  C   C355      1.0  0.47172  0.40413  0.23441  1.0000
  C  Sn38      1.0  0.45160  0.37877  0.35850  1.0000
  C  Sn39      1.0  0.45000  0.35135  0.41838  1.0000
  C   C356      1.0  0.46856  0.34988  0.35282  1.0000
  C  Sn40      1.0  0.48869  0.37522  0.22869  1.0000
  O  Te37      1.0  0.51024  0.42827  0.04483  1.0000
  O  Te38      1.0  0.43326  0.38081  0.42211  1.0000
  O  Te39      1.0  0.43003  0.32572  0.54246  1.0000
  O  Te40      1.0  0.50702  0.37320  0.16512  1.0000
  Mg  Mg19      1.0  0.40972  0.33974  0.58983  1.0000
  Mg  Mg20      1.0  0.52678  0.34431  0.99748  1.0000
  C  Sn41      1.0  0.60508  0.10582  0.12854  1.0000
  C   C357      1.0  0.59754  0.07610  0.21418  1.0000
  C  Sn42      1.0  0.61213  0.06406  0.35914  1.0000
  C  Sn43      1.0  0.63472  0.08209  0.41987  1.0000
  C   C358      1.0  0.64225  0.11178  0.33428  1.0000
  C  Sn44      1.0  0.62767  0.12385  0.18927  1.0000
  O  Te41      1.0  0.58640  0.04745  0.98388  1.0000
  O  Te42      1.0  0.60421  0.03429  0.44256  1.0000
  O  Te43      1.0  0.64960  0.07049  0.56465  1.0000
  O  Te44      1.0  0.63558  0.15360  0.10590  1.0000
  Mg  Mg21      1.0  0.63089  0.02871  0.63434  1.0000
  Mg  Mg22      1.0  0.60510  0.08925  0.91419  1.0000
  C  Sn45      1.0  0.89813  0.50550  0.21038  1.0000
  C   C359      1.0  0.92305  0.52454  0.23289  1.0000
  C  Sn46      1.0  0.92698  0.54286  0.30623  1.0000
  C  Sn47      1.0  0.90555  0.54213  0.35830  1.0000
  C   C360      1.0  0.88065  0.52310  0.33582  1.0000
  C  Sn48      1.0  0.87670  0.50477  0.26244  1.0000
  O  Te45      1.0  0.89465  0.48737  0.13678  1.0000
  O  Te46      1.0  0.95207  0.56171  0.32736  1.0000
  O  Te47      1.0  0.90905  0.56028  0.43194  1.0000
  O  Te48      1.0  0.85162  0.48593  0.24134  1.0000
  Mg  Mg23      1.0  0.94692  0.58217  0.43401  1.0000
  Mg  Mg24      1.0  0.85676  0.46545  0.13480  1.0000
  C  Sn49      1.0  0.62125  0.54582  0.63615  1.0000
  C   C361      1.0  0.59953  0.52410  0.75764  1.0000
  C  Sn50      1.0  0.60062  0.50016  0.92324  1.0000
  C  Sn51      1.0  0.62390  0.49789  0.96845  1.0000
  C   C362      1.0  0.64560  0.51960  0.84702  1.0000
  C  Sn52      1.0  0.64453  0.54354  0.68136  1.0000
  O  Te49      1.0  0.61973  0.56955  0.47136  1.0000
  O  Te50      1.0  0.58246  0.54867  0.04245  1.0000
  O  Te51      1.0  0.62921  0.54407  0.13340  1.0000
  O  Te52      1.0  0.66648  0.56497  0.56221  1.0000
  Mg  Mg25      1.0  0.59414  0.52049  0.25068  1.0000
  Mg  Mg26      1.0  0.65483  0.59316  0.35401  1.0000
  C  Sn53      1.0  0.46093  0.09003  0.65468  1.0000
  C   C363      1.0  0.47961  0.08024  0.72432  1.0000
  C  Sn54      1.0  0.49982  0.09126  0.83203  1.0000
  C  Sn55      1.0  0.50139  0.11252  0.87107  1.0000
  C   C364      1.0  0.48271  0.12230  0.80148  1.0000
  C  Sn56      1.0  0.46250  0.11129  0.69371  1.0000
  O  Te53      1.0  0.44089  0.07870  0.54732  1.0000
  O  Te54      1.0  0.51827  0.08114  0.90006  1.0000
  O  Te55      1.0  0.52144  0.12385  0.97852  1.0000
  O  Te56      1.0  0.44406  0.12140  0.62573  1.0000
  Mg  Mg27      1.0  0.54570  0.17313  0.03985  1.0000
  Mg  Mg28      1.0  0.42041  0.09936  0.48602  1.0000
  C  Sn57      1.0  0.89924  0.39604  0.84930  1.0000
  C   C365      1.0  0.92414  0.40118  0.83065  1.0000
  C  Sn58      1.0  0.92831  0.38737  0.75287  1.0000
  C  Sn59      1.0  0.90714  0.36803  0.69236  1.0000
  C   C366      1.0  0.88225  0.36290  0.71099  1.0000
  C  Sn60      1.0  0.87807  0.37670  0.78879  1.0000
  O  Te57      1.0  0.89552  0.41009  0.92745  1.0000
  O  Te58      1.0  0.95338  0.39284  0.73573  1.0000
  O  Te59      1.0  0.91087  0.35398  0.61417  1.0000
  O  Te60      1.0  0.85301  0.37124  0.80591  1.0000
  Mg  Mg29      1.0  0.94861  0.36850  0.62027  1.0000
  Mg  Mg30      1.0  0.85776  0.39558  0.92125  1.0000
  C  Sn61      1.0  0.36266  0.44739  0.82683  1.0000
  C   C367      1.0  0.35857  0.46746  0.83917  1.0000
  C  Sn62      1.0  0.37892  0.49469  0.80648  1.0000
  C  Sn63      1.0  0.40388  0.50203  0.76036  1.0000
  C   C368      1.0  0.40795  0.48197  0.74801  1.0000
  C  Sn64      1.0  0.38761  0.45473  0.78071  1.0000
  O  Te61      1.0  0.34203  0.42030  0.86007  1.0000
  O  Te62      1.0  0.37437  0.51438  0.81970  1.0000
  O  Te63      1.0  0.42451  0.52915  0.72712  1.0000
  O  Te64      1.0  0.39215  0.43505  0.76748  1.0000
  Mg  Mg31      1.0  0.40865  0.54858  0.76185  1.0000
  Mg  Mg32      1.0  0.35788  0.40086  0.82520  1.0000
  C  Sn65      1.0  0.54291  0.92875  0.63778  1.0000
  C   C369      1.0  0.52449  0.93016  0.70558  1.0000
  C  Sn66      1.0  0.50465  0.90478  0.83238  1.0000
  C  Sn67      1.0  0.50321  0.87742  0.89280  1.0000
  C   C370      1.0  0.52163  0.87602  0.82504  1.0000
  C  Sn68      1.0  0.54147  0.90139  0.69820  1.0000
  O  Te65      1.0  0.56258  0.95440  0.51110  1.0000
  O  Te66      1.0  0.48645  0.90674  0.89815  1.0000
  O  Te67      1.0  0.48734  0.92171  0.01957  1.0000
  O  Te68      1.0  0.55967  0.89943  0.63247  1.0000
  Mg  Mg33      1.0  0.46711  0.93562  0.06919  1.0000
  Mg  Mg34      1.0  0.58283  0.94049  0.46151  1.0000
  C  Sn69      1.0  0.09706  0.64568  0.67381  1.0000
  C   C371      1.0  0.11764  0.64343  0.79347  1.0000
  C  Sn70      1.0  0.11859  0.61694  0.89697  1.0000
  C  Sn71      1.0  0.09858  0.59219  0.88044  1.0000
  C   C372      1.0  0.07802  0.59445  0.76082  1.0000
  C  Sn72      1.0  0.07704  0.62093  0.65728  1.0000
  O  Te69      1.0  0.09650  0.67238  0.57167  1.0000
  O  Te70      1.0  0.14316  0.68516  0.01573  1.0000
  O  Te71      1.0  0.09915  0.56548  0.98272  1.0000
  O  Te72      1.0  0.05630  0.62266  0.53856  1.0000
  Mg  Mg35      1.0  0.13528  0.64401  0.12569  1.0000
  Mg  Mg36      1.0  0.06417  0.66380  0.42846  1.0000
  C  Sn73      1.0  0.50332  0.61669  0.77263  1.0000
  C   C373      1.0  0.52357  0.63772  0.81971  1.0000
  C  Sn74      1.0  0.54817  0.63965  0.84597  1.0000
  C  Sn75      1.0  0.55262  0.62016  0.82461  1.0000
  C   C374      1.0  0.53238  0.59915  0.77752  1.0000
  C  Sn76      1.0  0.50777  0.59721  0.75126  1.0000
  O  Te73      1.0  0.47888  0.61516  0.74703  1.0000
  O  Te74      1.0  0.56811  0.66084  0.89305  1.0000
  O  Te75      1.0  0.57708  0.62171  0.85025  1.0000
  O  Te76      1.0  0.48784  0.57603  0.70418  1.0000
  Mg  Mg37      1.0  0.59803  0.65429  0.91319  1.0000
  Mg  Mg38      1.0  0.45792  0.58257  0.68391  1.0000
  C  Sn77      1.0  0.37567  0.91989  0.87655  1.0000
  C   C375      1.0  0.40042  0.92485  0.85517  1.0000
  C  Sn78      1.0  0.40407  0.91025  0.78148  1.0000
  C  Sn79      1.0  0.38253  0.89027  0.72792  1.0000
  C   C376      1.0  0.35780  0.88532  0.74928  1.0000
  C  Sn80      1.0  0.35414  0.89991  0.82299  1.0000
  O  Te77      1.0  0.87193  0.93474  0.95051  1.0000
  O  Te78      1.0  0.42899  0.91556  0.76149  1.0000
  O  Te79      1.0  0.38574  0.87542  0.65392  1.0000
  O  Te80      1.0  0.32923  0.89461  0.84295  1.0000
  Mg  Mg39      1.0  0.42346  0.89004  0.65379  1.0000
  Mg  Mg40      1.0  0.33474  0.92013  0.95054  1.0000
  C  Sn81      1.0  0.09370  0.49310  0.62001  1.0000
  C   C377      1.0  0.07264  0.47273  0.74962  1.0000
  C  Sn82      1.0  0.07409  0.44957  0.92038  1.0000
  C  Sn83      1.0  0.09708  0.44672  0.96255  1.0000
  C   C378      1.0  0.11812  0.46709  0.83300  1.0000
  C  Sn84      1.0  0.11669  0.49026  0.66218  1.0000
  O  Te81      1.0  0.09183  0.51609  0.45018  1.0000
  O  Te82      1.0  0.05658  0.49941  0.04768  1.0000
  O  Te83      1.0  0.10274  0.49366  0.13254  1.0000
  O  Te84      1.0  0.13799  0.51035  0.53494  1.0000
  Mg  Mg41      1.0  0.06854  0.47186  0.26039  1.0000
  Mg  Mg42      1.0  0.12606  0.53792  0.32225  1.0000
  C  Sn85      1.0  0.44935  0.35902  0.81449  1.0000
  C   C379      1.0  0.46818  0.35713  0.75545  1.0000
  C  Sn86      1.0  0.49359  0.37895  0.72243  1.0000
  C  Sn87      1.0  0.50032  0.40315  0.74909  1.0000
  C   C380      1.0  0.48149  0.40502  0.80813  1.0000
  C  Sn88      1.0  0.45607  0.38322  0.84115  1.0000
  O  Te85      1.0  0.42407  0.33696  0.84666  1.0000
  O  Te86      1.0  0.51208  0.37659  0.66342  1.0000
  O  Te87      1.0  0.52562  0.42522  0.71686  1.0000
  O  Te88      1.0  0.43759  0.38556  0.90015  1.0000
  Mg  Mg43      1.0  0.54393  0.41219  0.63799  1.0000
  Mg  Mg44      1.0  0.40574  0.34997  0.92572  1.0000
  C  Sn89      1.0  0.64042  0.08013  0.86246  1.0000
  C   C381      1.0  0.64803  0.10984  0.77891  1.0000
  C  Sn90      1.0  0.62969  0.12012  0.71063  1.0000
  C  Sn91      1.0  0.60320  0.10030  0.72630  1.0000
  C   C382      1.0  0.59560  0.07062  0.80984  1.0000
  C  Sn92      1.0  0.61392  0.06031  0.87812  1.0000
  O  Te89      1.0  0.65907  0.07034  0.92975  1.0000
  O  Te90      1.0  0.63777  0.14992  0.62760  1.0000
  O  Te91      1.0  0.58454  0.11013  0.65892  1.0000
  O  Te92      1.0  0.60586  0.03054  0.96114  1.0000
  Mg  Mg45      1.0  0.60508  0.15270  0.55723  1.0000
  Mg  Mg46      1.0  0.64233  0.09768  0.03165  1.0000
  C  Sn93      1.0  0.91721  0.55762  0.75626  1.0000
  C   C383      1.0  0.89201  0.53918  0.73322  1.0000
  C  Sn94      1.0  0.88596  0.51219  0.75420  1.0000
  C  Sn95      1.0  0.90549  0.50343  0.79927  1.0000
  C   C384      1.0  0.93067  0.52187  0.82231  1.0000
  C  Sn96      1.0  0.93674  0.54887  0.80132  1.0000
  O  Te93      1.0  0.92283  0.58451  0.73463  1.0000
  O  Te94      1.0  0.86063  0.49412  0.73042  1.0000
  O  Te95      1.0  0.89986  0.47652  0.82089  1.0000
  O  Te96      1.0  0.96205  0.56692  0.82511  1.0000
  Mg  Mg47      1.0  0.86253  0.45957  0.77452  1.0000
  Mg  Mg48      1.0  0.96018  0.60148  0.78115  1.0000
