data_image0
_chemical_formula_structural       H128C168N32SnCSn2CSnTe4Mg2SnCSn2CSnTe4Mg2SnCSn2CSnTe4Mg2SnCSn2CSnTe4Mg2SnCSn2CSnTe4Mg2SnCSn2CSnTe4Mg2SnCSn2CSnTe4Mg2SnCSn2CSnTe4Mg2SnCSn2CSnTe4Mg2SnCSn2CSnTe4Mg2SnCSn2CSnTe4Mg2SnCSn2CSnTe4Mg2SnCSn2CSnTe4Mg2SnCSn2CSnTe4Mg2SnCSn2CSnTe4Mg2SnCSn2CSnTe4Mg2SnCSn2CSnTe4Mg2SnCSn2CSnTe4Mg2SnCSn2CSnTe4Mg2SnCSn2CSnTe4Mg2SnCSn2CSnTe4Mg2SnCSn2CSnTe4Mg2SnCSn2CSnTe4Mg2SnCSn2CSnTe4Mg2SnCSn2CSnTe4Mg2SnCSn2CSnTe4Mg2SnCSn2CSnTe4Mg2SnCSn2CSnTe4Mg2SnCSn2CSnTe4Mg2SnCSn2CSnTe4Mg2SnCSn2CSnTe4Mg2SnCSn2CSnTe4Mg2SnCSn2CSnTe4Mg2SnCSn2CSnTe4Mg2SnCSn2CSnTe4Mg2SnCSn2CSnTe4Mg2SnCSn2CSnTe4Mg2SnCSn2CSnTe4Mg2SnCSn2CSnTe4Mg2SnCSn2CSnTe4Mg2SnCSn2CSnTe4Mg2SnCSn2CSnTe4Mg2SnCSn2CSnTe4Mg2SnCSn2CSnTe4Mg2SnCSn2CSnTe4Mg2SnCSn2CSnTe4Mg2SnCSn2CSnTe4Mg2SnCSn2CSnTe4Mg2
_chemical_formula_sum              "H128 C264 N32 Sn192 Te192 Mg96"
_cell_length_a       61.7979
_cell_length_b       33.5453
_cell_length_c       33.1432
_cell_angle_alpha    90.2285
_cell_angle_beta     90.0554
_cell_angle_gamma    90.2278

_symmetry_space_group_name_H-M    'P1'
_space_group_IT_number       1

loop_
  _space_group_symop_operation_xyz
  'x, y, z'

loop_
  _atom_site_type_symbol
  _atom_site_label
  _atom_site_symmetry_multiplicity
  _atom_site_fract_x
  _atom_site_fract_y
  _atom_site_fract_z
  _atom_site_occupancy
  H   H1        1.0  0.73018  0.40345  0.40340  1.0000
  H   H2        1.0  0.26961  0.59375  0.90266  1.0000
  H   H3        1.0  0.73111  0.56150  0.90144  1.0000
  H   H4        1.0  0.26776  0.40494  0.40358  1.0000
  H   H5        1.0  0.75540  0.41087  0.42881  1.0000
  H   H6        1.0  0.24453  0.59182  0.92936  1.0000
  H   H7        1.0  0.74151  0.60835  0.91617  1.0000
  H   H8        1.0  0.24289  0.41203  0.43008  1.0000
  H   H9        1.0  0.74030  0.45208  0.41177  1.0000
  H   H10       1.0  0.25745  0.54735  0.91444  1.0000
  H   H11       1.0  0.75631  0.56485  0.92772  1.0000
  H   H12       1.0  0.25772  0.45345  0.41221  1.0000
  H   H13       1.0  0.75508  0.45862  0.57099  1.0000
  H   H14       1.0  0.24685  0.53927  0.07261  1.0000
  H   H15       1.0  0.75462  0.53881  0.07183  1.0000
  H   H16       1.0  0.24536  0.46171  0.57190  1.0000
  H   H17       1.0  0.74851  0.41042  0.58791  1.0000
  H   H18       1.0  0.25005  0.58983  0.08571  1.0000
  H   H19       1.0  0.74918  0.58791  0.08753  1.0000
  H   H20       1.0  0.25138  0.41307  0.58829  1.0000
  H   H21       1.0  0.73149  0.45079  0.60102  1.0000
  H   H22       1.0  0.26939  0.55469  0.10257  1.0000
  H   H23       1.0  0.73130  0.54899  0.10165  1.0000
  H   H24       1.0  0.26911  0.45277  0.60113  1.0000
  H   H25       1.0  0.66340  0.39878  0.48001  1.0000
  H   H26       1.0  0.33609  0.60634  0.98128  1.0000
  H   H27       1.0  0.66165  0.55052  0.99781  1.0000
  H   H28       1.0  0.33447  0.39013  0.48987  1.0000
  H   H29       1.0  0.66105  0.44515  0.50478  1.0000
  H   H30       1.0  0.33894  0.55711  0.99859  1.0000
  H   H31       1.0  0.66376  0.59027  0.03274  1.0000
  H   H32       1.0  0.33765  0.44189  0.48371  1.0000
  H   H33       1.0  0.66421  0.40144  0.53368  1.0000
  H   H34       1.0  0.33638  0.59640  0.03398  1.0000
  H   H35       1.0  0.66426  0.59962  0.97992  1.0000
  H   H36       1.0  0.33685  0.42119  0.53304  1.0000
  H   H37       1.0  0.76746  0.53480  0.48952  1.0000
  H   H38       1.0  0.23130  0.46690  0.00523  1.0000
  H   H39       1.0  0.77054  0.46655  0.00250  1.0000
  H   H40       1.0  0.23246  0.53560  0.50502  1.0000
  H   H41       1.0  0.74806  0.51002  0.52016  1.0000
  H   H42       1.0  0.25550  0.49602  0.00862  1.0000
  H   H43       1.0  0.74633  0.49423  0.01116  1.0000
  H   H44       1.0  0.25623  0.50547  0.50532  1.0000
  H   H45       1.0  0.74694  0.50430  0.46744  1.0000
  H   H46       1.0  0.24366  0.48558  0.96115  1.0000
  H   H47       1.0  0.75614  0.48765  0.96165  1.0000
  H   H48       1.0  0.24295  0.51631  0.45946  1.0000
  H   H49       1.0  0.83714  0.46773  0.47180  1.0000
  H   H50       1.0  0.16025  0.53398  0.00666  1.0000
  H   H51       1.0  0.83948  0.53887  0.97795  1.0000
  H   H52       1.0  0.16170  0.46941  0.47704  1.0000
  H   H53       1.0  0.83998  0.41593  0.48231  1.0000
  H   H54       1.0  0.16219  0.56123  0.96142  1.0000
  H   H55       1.0  0.84035  0.59167  0.98425  1.0000
  H   H56       1.0  0.15910  0.41683  0.48304  1.0000
  H   H57       1.0  0.84056  0.45144  0.52188  1.0000
  H   H58       1.0  0.15910  0.58698  0.00761  1.0000
  H   H59       1.0  0.84088  0.56003  0.02674  1.0000
  H   H60       1.0  0.15890  0.44877  0.52556  1.0000
  H   H61       1.0  0.75012  0.36078  0.52451  1.0000
  H   H62       1.0  0.24911  0.64072  0.03084  1.0000
  H   H63       1.0  0.74746  0.64102  0.00236  1.0000
  H   H64       1.0  0.24810  0.36302  0.53109  1.0000
  H   H65       1.0  0.77600  0.33727  0.52292  1.0000
  H   H66       1.0  0.22491  0.66618  0.01723  1.0000
  H   H67       1.0  0.76550  0.65191  0.04256  1.0000
  H   H68       1.0  0.22341  0.33739  0.52035  1.0000
  H   H69       1.0  0.76115  0.34519  0.47808  1.0000
  H   H70       1.0  0.24377  0.65123  0.97987  1.0000
  H   H71       1.0  0.77234  0.66656  0.99318  1.0000
  H   H72       1.0  0.24161  0.35000  0.48106  1.0000
  H   H73       1.0  0.47797  0.51307  0.35377  1.0000
  H   H74       1.0  0.52086  0.47973  0.85252  1.0000
  H   H75       1.0  0.47727  0.48210  0.85358  1.0000
  H   H76       1.0  0.52151  0.51216  0.35330  1.0000
  H   H77       1.0  0.58273  0.55552  0.46099  1.0000
  H   H78       1.0  0.41691  0.44033  0.96232  1.0000
  H   H79       1.0  0.58107  0.43215  0.95926  1.0000
  H   H80       1.0  0.41810  0.55863  0.46166  1.0000
  H   H81       1.0  0.58282  0.56391  0.54184  1.0000
  H   H82       1.0  0.41720  0.43307  0.04330  1.0000
  H   H83       1.0  0.58154  0.42584  0.04033  1.0000
  H   H84       1.0  0.41831  0.56810  0.54241  1.0000
  H   H85       1.0  0.47894  0.55411  0.65757  1.0000
  H   H86       1.0  0.52217  0.44658  0.15629  1.0000
  H   H87       1.0  0.47861  0.44909  0.15729  1.0000
  H   H88       1.0  0.52248  0.55145  0.65709  1.0000
  H   H89       1.0  0.66025  0.40691  0.71059  1.0000
  H   H90       1.0  0.34025  0.58803  0.21127  1.0000
  H   H91       1.0  0.65943  0.58674  0.20954  1.0000
  H   H92       1.0  0.33928  0.41472  0.71056  1.0000
  H   H93       1.0  0.08170  0.97684  0.50860  1.0000
  H   H94       1.0  0.91838  0.02499  0.00394  1.0000
  H   H95       1.0  0.08268  0.02439  0.00904  1.0000
  H   H96       1.0  0.91673  0.97602  0.50514  1.0000
  H   H97       1.0  0.08250  0.89659  0.51366  1.0000
  H   H98       1.0  0.08249  0.10462  0.01446  1.0000
  H   H99       1.0  0.91723  0.89572  0.50900  1.0000
  H   H100      1.0  0.98279  0.06833  0.99219  1.0000
  H   H101      1.0  0.01729  0.93244  0.49811  1.0000
  H   H102      1.0  0.98172  0.93771  0.49372  1.0000
  H   H103      1.0  0.01825  0.06411  0.99238  1.0000
  H   H104      1.0  0.97964  0.21812  0.98584  1.0000
  H   H105      1.0  0.02107  0.78301  0.49392  1.0000
  H   H106      1.0  0.97752  0.78411  0.49117  1.0000
  H   H107      1.0  0.02315  0.21693  0.98819  1.0000
  H   H108      1.0  0.50049  0.54409  0.47091  1.0000
  H   H109      1.0  0.50023  0.55244  0.53582  1.0000
  H   H110      1.0  0.49936  0.44971  0.97021  1.0000
  H   H111      1.0  0.49941  0.44457  0.03539  1.0000
  H   H112      1.0  0.35520  0.62578  0.81872  1.0000
  H   H113      1.0  0.64766  0.62002  0.81501  1.0000
  H   H114      1.0  0.64529  0.37593  0.31737  1.0000
  H   H115      1.0  0.35427  0.38159  0.31761  1.0000
  H   H116      1.0  0.15890  0.63998  0.45564  1.0000
  H   H117      1.0  0.13510  0.26476  0.54234  1.0000
  H   H118      1.0  0.86547  0.26456  0.53510  1.0000
  H   H119      1.0  0.84114  0.63890  0.45523  1.0000
  H   H120      1.0  0.97866  0.08696  0.47627  1.0000
  H   H121      1.0  0.02222  0.08551  0.47951  1.0000
  H   H122      1.0  0.91792  0.10533  0.00950  1.0000
  H   H123      1.0  0.97792  0.91590  0.97299  1.0000
  H   H124      1.0  0.02156  0.91467  0.97269  1.0000
  H   H125      1.0  0.14168  0.74574  0.04468  1.0000
  H   H126      1.0  0.15713  0.36470  0.95197  1.0000
  H   H127      1.0  0.85229  0.37762  0.95305  1.0000
  H   H128      1.0  0.85784  0.75090  0.04290  1.0000
  C   C1        1.0  0.45398  0.55403  0.53613  1.0000
  C   C2        1.0  0.54595  0.44096  0.03452  1.0000
  C   C3        1.0  0.45311  0.44532  0.03633  1.0000
  C   C4        1.0  0.54687  0.55160  0.53545  1.0000
  C   C5        1.0  0.46055  0.55687  0.57696  1.0000
  C   C6        1.0  0.53967  0.44023  0.07555  1.0000
  C   C7        1.0  0.45979  0.44417  0.07717  1.0000
  C   C8        1.0  0.54041  0.55391  0.57632  1.0000
  C   C9        1.0  0.56923  0.55697  0.52237  1.0000
  C   C10       1.0  0.43069  0.43968  0.02359  1.0000
  C   C11       1.0  0.56803  0.43342  0.02104  1.0000
  C   C12       1.0  0.43171  0.56022  0.52297  1.0000
  C   C13       1.0  0.98289  0.15160  0.99600  1.0000
  C   C14       1.0  0.01746  0.84978  0.50144  1.0000
  C   C15       1.0  0.98212  0.85075  0.49937  1.0000
  C   C16       1.0  0.01823  0.15056  0.99739  1.0000
  C   C17       1.0  0.99005  0.19271  0.99068  1.0000
  C   C18       1.0  0.01047  0.80848  0.49672  1.0000
  C   C19       1.0  0.98845  0.80906  0.49539  1.0000
  C   C20       1.0  0.01207  0.19210  0.99171  1.0000
  C   C21       1.0  0.04001  0.13824  0.00078  1.0000
  C   C22       1.0  0.96023  0.86291  0.50017  1.0000
  C   C23       1.0  0.03948  0.86128  0.50424  1.0000
  C   C24       1.0  0.96083  0.14024  0.99810  1.0000
  C   C25       1.0  0.45381  0.54615  0.47064  1.0000
  C   C26       1.0  0.54568  0.44656  0.96885  1.0000
  C   C27       1.0  0.45283  0.45126  0.97070  1.0000
  C   C28       1.0  0.54683  0.54449  0.46990  1.0000
  C   C29       1.0  0.46026  0.53870  0.43043  1.0000
  C   C30       1.0  0.53905  0.45368  0.92870  1.0000
  C   C31       1.0  0.45925  0.45774  0.93035  1.0000
  C   C32       1.0  0.54015  0.53729  0.42975  1.0000
  C   C33       1.0  0.56918  0.55279  0.48147  1.0000
  C   C34       1.0  0.43054  0.44330  0.98267  1.0000
  C   C35       1.0  0.56782  0.43665  0.98008  1.0000
  C   C36       1.0  0.43164  0.55552  0.48215  1.0000
  C   C37       1.0  0.98282  0.98160  0.98657  1.0000
  C   C38       1.0  0.01704  0.01974  0.49154  1.0000
  C   C39       1.0  0.98173  0.02095  0.48974  1.0000
  C   C40       1.0  0.01810  0.98050  0.98703  1.0000
  C   C41       1.0  0.98901  0.94041  0.97847  1.0000
  C   C42       1.0  0.01103  0.06100  0.48380  1.0000
  C   C43       1.0  0.98901  0.06173  0.48232  1.0000
  C   C44       1.0  0.01103  0.93977  0.97847  1.0000
  C   C45       1.0  0.04005  0.99165  0.99145  1.0000
  C   C46       1.0  0.95966  0.00977  0.49233  1.0000
  C   C47       1.0  0.03875  0.00773  0.49596  1.0000
  C   C48       1.0  0.96106  0.99367  0.99000  1.0000
  C   C49       1.0  0.48214  0.55542  0.59051  1.0000
  C   C50       1.0  0.51821  0.44296  0.08951  1.0000
  C   C51       1.0  0.48148  0.44493  0.09033  1.0000
  C   C52       1.0  0.51887  0.55367  0.59013  1.0000
  C   C53       1.0  0.48950  0.55434  0.63155  1.0000
  C   C54       1.0  0.51129  0.44541  0.13072  1.0000
  C   C55       1.0  0.48904  0.44664  0.13122  1.0000
  C   C56       1.0  0.51176  0.55313  0.63132  1.0000
  C   C57       1.0  0.48177  0.53230  0.41788  1.0000
  C   C58       1.0  0.51752  0.46069  0.91663  1.0000
  C   C59       1.0  0.48084  0.46264  0.91748  1.0000
  C   C60       1.0  0.51848  0.53159  0.41751  1.0000
  C   C61       1.0  0.48878  0.52056  0.37839  1.0000
  C   C62       1.0  0.51024  0.47262  0.87744  1.0000
  C   C63       1.0  0.48799  0.47381  0.87796  1.0000
  C   C64       1.0  0.51103  0.52011  0.37816  1.0000
  C   C65       1.0  0.04679  0.90107  0.50430  1.0000
  C   C66       1.0  0.95347  0.10047  0.99871  1.0000
  C   C67       1.0  0.04722  0.09851  0.00130  1.0000
  C   C68       1.0  0.95280  0.90254  0.49961  1.0000
  C   C69       1.0  0.06856  0.91543  0.50886  1.0000
  C   C70       1.0  0.93171  0.08635  0.00388  1.0000
  C   C71       1.0  0.06895  0.08509  0.00784  1.0000
  C   C72       1.0  0.93083  0.91554  0.50410  1.0000
  C   C73       1.0  0.04615  0.96850  0.50054  1.0000
  C   C74       1.0  0.95380  0.03300  0.99469  1.0000
  C   C75       1.0  0.04739  0.03106  0.99680  1.0000
  C   C76       1.0  0.95232  0.97013  0.49601  1.0000
  C   C77       1.0  0.06816  0.95637  0.50640  1.0000
  C   C78       1.0  0.93191  0.04539  0.00119  1.0000
  C   C79       1.0  0.06904  0.04414  0.00508  1.0000
  C   C80       1.0  0.93055  0.95652  0.50207  1.0000
  C   C81       1.0  0.65594  0.42882  0.68732  1.0000
  C   C82       1.0  0.34480  0.56709  0.18709  1.0000
  C   C83       1.0  0.65530  0.56454  0.18619  1.0000
  C   C84       1.0  0.34356  0.43646  0.68704  1.0000
  C   C85       1.0  0.70571  0.42705  0.54010  1.0000
  C   C86       1.0  0.29467  0.57397  0.03997  1.0000
  C   C87       1.0  0.70583  0.56973  0.03964  1.0000
  C   C88       1.0  0.29404  0.42993  0.53923  1.0000
  C   C89       1.0  0.72840  0.43140  0.53877  1.0000
  C   C90       1.0  0.27195  0.56949  0.03907  1.0000
  C   C91       1.0  0.72859  0.56666  0.03891  1.0000
  C   C92       1.0  0.27129  0.43372  0.53871  1.0000
  C   C93       1.0  0.73905  0.42939  0.50124  1.0000
  C   C94       1.0  0.26102  0.57099  0.00175  1.0000
  C   C95       1.0  0.73961  0.56925  0.00176  1.0000
  C   C96       1.0  0.26020  0.43134  0.50163  1.0000
  C   C97       1.0  0.72730  0.42388  0.46524  1.0000
  C   C98       1.0  0.27246  0.57683  0.96551  1.0000
  C   C99       1.0  0.72814  0.57401  0.96539  1.0000
  C   C100      1.0  0.27148  0.42573  0.46519  1.0000
  C   C101      1.0  0.70459  0.42015  0.46703  1.0000
  C   C102      1.0  0.29513  0.58154  0.96685  1.0000
  C   C103      1.0  0.70541  0.57687  0.96664  1.0000
  C   C104      1.0  0.29416  0.42229  0.46619  1.0000
  C   C105      1.0  0.69364  0.42125  0.50429  1.0000
  C   C106      1.0  0.30637  0.58033  0.00390  1.0000
  C   C107      1.0  0.69408  0.57515  0.00345  1.0000
  C   C108      1.0  0.30561  0.42396  0.50301  1.0000
  C   C109      1.0  0.76312  0.43306  0.49973  1.0000
  C   C110      1.0  0.23688  0.56759  0.00060  1.0000
  C   C111      1.0  0.76378  0.56758  0.00108  1.0000
  C   C112      1.0  0.23614  0.43485  0.50074  1.0000
  C   C113      1.0  0.77265  0.47109  0.49564  1.0000
  C   C114      1.0  0.22665  0.53023  0.99607  1.0000
  C   C115      1.0  0.77433  0.53054  0.99697  1.0000
  C   C116      1.0  0.22646  0.47245  0.49600  1.0000
  C   C117      1.0  0.79537  0.47441  0.49478  1.0000
  C   C118      1.0  0.20385  0.52830  0.99468  1.0000
  C   C119      1.0  0.79710  0.52945  0.99610  1.0000
  C   C120      1.0  0.20371  0.47498  0.49539  1.0000
  C   C121      1.0  0.80852  0.44010  0.49684  1.0000
  C   C122      1.0  0.19129  0.56326  0.99745  1.0000
  C   C123      1.0  0.80938  0.56494  0.99848  1.0000
  C   C124      1.0  0.19068  0.44053  0.49863  1.0000
  C   C125      1.0  0.79867  0.40238  0.50103  1.0000
  C   C126      1.0  0.20185  0.60037  0.00215  1.0000
  C   C127      1.0  0.79855  0.60157  0.00279  1.0000
  C   C128      1.0  0.20070  0.40303  0.50317  1.0000
  C   C129      1.0  0.77593  0.39864  0.50277  1.0000
  C   C130      1.0  0.22459  0.60277  0.00388  1.0000
  C   C131      1.0  0.77579  0.60322  0.00445  1.0000
  C   C132      1.0  0.22346  0.40007  0.50445  1.0000
  C   C133      1.0  0.84150  0.62418  0.48486  1.0000
  C   C134      1.0  0.15677  0.37946  0.98169  1.0000
  C   C135      1.0  0.84721  0.38484  0.98404  1.0000
  C   C136      1.0  0.15783  0.62406  0.48456  1.0000
  C   C137      1.0  0.65298  0.40519  0.32233  1.0000
  C   C138      1.0  0.34716  0.59673  0.82282  1.0000
  C   C139      1.0  0.65431  0.59035  0.82159  1.0000
  C   C140      1.0  0.34556  0.40992  0.32138  1.0000
  C   C141      1.0  0.85414  0.26463  0.50945  1.0000
  C   C142      1.0  0.14920  0.74161  0.01488  1.0000
  C   C143      1.0  0.85094  0.74419  0.01297  1.0000
  C   C144      1.0  0.14653  0.26314  0.51694  1.0000
  C   C145      1.0  0.74145  0.43837  0.57675  1.0000
  C   C146      1.0  0.25902  0.56280  0.07712  1.0000
  C   C147      1.0  0.74146  0.56009  0.07708  1.0000
  C   C148      1.0  0.25872  0.44088  0.57711  1.0000
  C   C149      1.0  0.66932  0.41618  0.50580  1.0000
  C   C150      1.0  0.33070  0.58553  0.00462  1.0000
  C   C151      1.0  0.66970  0.57929  0.00364  1.0000
  C   C152      1.0  0.32993  0.41914  0.50273  1.0000
  C   C153      1.0  0.73891  0.42220  0.42520  1.0000
  C   C154      1.0  0.26042  0.57778  0.92584  1.0000
  C   C155      1.0  0.73993  0.57704  0.92560  1.0000
  C   C156      1.0  0.25933  0.42366  0.42568  1.0000
  C   C157      1.0  0.76530  0.35833  0.50760  1.0000
  C   C158      1.0  0.23605  0.64241  0.00842  1.0000
  C   C159      1.0  0.76460  0.64274  0.01065  1.0000
  C   C160      1.0  0.23459  0.36043  0.50971  1.0000
  C   C161      1.0  0.75818  0.50718  0.49303  1.0000
  C   C162      1.0  0.23998  0.49268  0.99287  1.0000
  C   C163      1.0  0.76119  0.49265  0.99316  1.0000
  C   C164      1.0  0.24026  0.50944  0.49153  1.0000
  C   C165      1.0  0.83282  0.44389  0.49291  1.0000
  C   C166      1.0  0.16693  0.56126  0.99346  1.0000
  C   C167      1.0  0.83380  0.56383  0.99652  1.0000
  C   C168      1.0  0.16633  0.44397  0.49578  1.0000
  N   N1        1.0  0.34978  0.56783  0.79746  1.0000
  N   N2        1.0  0.65013  0.43432  0.29761  1.0000
  N   N3        1.0  0.34752  0.43839  0.29554  1.0000
  N   N4        1.0  0.65051  0.56011  0.79843  1.0000
  N   N5        1.0  0.85340  0.36426  0.01484  1.0000
  N   N6        1.0  0.14625  0.63652  0.51450  1.0000
  N   N7        1.0  0.85247  0.63833  0.51492  1.0000
  N   N8        1.0  0.14581  0.36569  0.01181  1.0000
  N   N9        1.0  0.36161  0.54458  0.19005  1.0000
  N   N10       1.0  0.63914  0.45127  0.69068  1.0000
  N   N11       1.0  0.36014  0.45968  0.69069  1.0000
  N   N12       1.0  0.63881  0.54110  0.18985  1.0000
  N   N13       1.0  0.85457  0.76663  0.98210  1.0000
  N   N14       1.0  0.14697  0.23349  0.49190  1.0000
  N   N15       1.0  0.85406  0.23660  0.48258  1.0000
  N   N16       1.0  0.14569  0.76533  0.98495  1.0000
  N   N17       1.0  0.96628  0.06721  0.99381  1.0000
  N   N18       1.0  0.03380  0.93411  0.49981  1.0000
  N   N19       1.0  0.96520  0.93656  0.49497  1.0000
  N   N20       1.0  0.03473  0.06482  0.99516  1.0000
  N   N21       1.0  0.46722  0.54602  0.50383  1.0000
  N   N22       1.0  0.53253  0.44820  0.00230  1.0000
  N   N23       1.0  0.46638  0.45156  0.00369  1.0000
  N   N24       1.0  0.53346  0.54466  0.50307  1.0000
  N   N25       1.0  0.50025  0.53751  0.44080  1.0000
  N   N26       1.0  0.49924  0.45612  0.94011  1.0000
  N   N27       1.0  0.50043  0.55452  0.56657  1.0000
  N   N28       1.0  0.49967  0.44340  0.06617  1.0000
  N   N29       1.0  0.00001  0.87515  0.50219  1.0000
  N   N30       1.0  0.00027  0.12627  0.99893  1.0000
  N   N31       1.0  0.99903  0.99570  0.49428  1.0000
  N   N32       1.0  0.00073  0.00569  0.99082  1.0000
  C  Sn1       1.0  0.38798  0.59950  0.76362  1.0000
  C   C169      1.0  0.36671  0.58523  0.76333  1.0000
  C  Sn2       1.0  0.35947  0.56045  0.73210  1.0000
  C  Sn3       1.0  0.37380  0.54969  0.70052  1.0000
  C   C170      1.0  0.39506  0.56395  0.70082  1.0000
  C  Sn4       1.0  0.40231  0.58874  0.73204  1.0000
  O  Te1       1.0  0.39487  0.62423  0.79514  1.0000
  O  Te2       1.0  0.33813  0.54657  0.73246  1.0000
  O  Te3       1.0  0.36689  0.52494  0.66898  1.0000
  O  Te4       1.0  0.42365  0.60262  0.73169  1.0000
  Mg  Mg1       1.0  0.33634  0.51361  0.68287  1.0000
  Mg  Mg2       1.0  0.42545  0.63555  0.78128  1.0000
  C  Sn5       1.0  0.61186  0.40270  0.26377  1.0000
  C   C171      1.0  0.63322  0.41655  0.26333  1.0000
  C  Sn6       1.0  0.64051  0.44089  0.23201  1.0000
  C  Sn7       1.0  0.62616  0.45162  0.20049  1.0000
  C   C172      1.0  0.60482  0.43777  0.20094  1.0000
  C  Sn8       1.0  0.59751  0.41343  0.23224  1.0000
  O  Te5       1.0  0.60492  0.37840  0.29537  1.0000
  O  Te6       1.0  0.66193  0.45436  0.23222  1.0000
  O  Te7       1.0  0.63312  0.47593  0.16887  1.0000
  O  Te8       1.0  0.57610  0.39996  0.23205  1.0000
  Mg  Mg3       1.0  0.66377  0.48680  0.18256  1.0000
  Mg  Mg4       1.0  0.57425  0.36754  0.28171  1.0000
  C  Sn9       1.0  0.39017  0.43337  0.27038  1.0000
  C   C173      1.0  0.36818  0.44251  0.26773  1.0000
  C  Sn10      1.0  0.35794  0.44419  0.23019  1.0000
  C  Sn11      1.0  0.36993  0.43655  0.19454  1.0000
  C   C174      1.0  0.39191  0.42741  0.19720  1.0000
  C  Sn12      1.0  0.40217  0.42573  0.23474  1.0000
  O  Te9       1.0  0.40008  0.43186  0.30824  1.0000
  O  Te10      1.0  0.33593  0.45340  0.22830  1.0000
  O  Te11      1.0  0.36001  0.43807  0.15667  1.0000
  O  Te12      1.0  0.42416  0.41652  0.23663  1.0000
  Mg  Mg5       1.0  0.32969  0.45186  0.16971  1.0000
  Mg  Mg6       1.0  0.43041  0.41803  0.29521  1.0000
  C  Sn13      1.0  0.60470  0.59308  0.74501  1.0000
  C   C175      1.0  0.60694  0.57683  0.70636  1.0000
  C  Sn14      1.0  0.62360  0.55003  0.69797  1.0000
  C  Sn15      1.0  0.63833  0.53924  0.72887  1.0000
  C   C176      1.0  0.63608  0.55548  0.76750  1.0000
  C  Sn16      1.0  0.61943  0.58229  0.77591  1.0000
  O  Te13      1.0  0.58793  0.61981  0.75271  1.0000
  O  Te14      1.0  0.62552  0.53419  0.65910  1.0000
  O  Te15      1.0  0.65511  0.51248  0.72114  1.0000
  O  Te16      1.0  0.61751  0.59812  0.81476  1.0000
  Mg  Mg7       1.0  0.65102  0.49893  0.66345  1.0000
  Mg  Mg8       1.0  0.59200  0.63337  0.81045  1.0000
  C  Sn17      1.0  0.06235  0.80098  0.54770  1.0000
  C   C177      1.0  0.06030  0.83096  0.51881  1.0000
  C  Sn18      1.0  0.07125  0.82813  0.48206  1.0000
  C  Sn19      1.0  0.08451  0.79462  0.47401  1.0000
  C   C178      1.0  0.08655  0.76466  0.50289  1.0000
  C  Sn20      1.0  0.07561  0.76747  0.53966  1.0000
  O  Te17      1.0  0.05125  0.80443  0.58423  1.0000
  O  Te18      1.0  0.06896  0.85849  0.45365  1.0000
  O  Te19      1.0  0.09561  0.79120  0.43745  1.0000
  O  Te20      1.0  0.07789  0.73714  0.56805  1.0000
  Mg  Mg9       1.0  0.08732  0.84023  0.40834  1.0000
  Mg  Mg10      1.0  0.05953  0.75535  0.61336  1.0000
  C  Sn21      1.0  0.93929  0.20307  0.04029  1.0000
  C   C179      1.0  0.94051  0.17143  0.01284  1.0000
  C  Sn22      1.0  0.92912  0.17620  0.97700  1.0000
  C  Sn23      1.0  0.91573  0.20934  0.96842  1.0000
  C   C180      1.0  0.91453  0.24096  0.99586  1.0000
  C  Sn24      1.0  0.92590  0.23622  0.03170  1.0000
  O  Te21      1.0  0.95134  0.20162  0.07592  1.0000
  O  Te22      1.0  0.93060  0.14421  0.95003  1.0000
  O  Te23      1.0  0.90368  0.21077  0.93275  1.0000
  O  Te24      1.0  0.92444  0.26819  0.05866  1.0000
  Mg  Mg11      1.0  0.91109  0.16002  0.90551  1.0000
  Mg  Mg12      1.0  0.94395  0.25242  0.10317  1.0000
  C  Sn25      1.0  0.07202  0.21632  0.04539  1.0000
  C   C181      1.0  0.08886  0.22402  0.01837  1.0000
  C  Sn26      1.0  0.08960  0.20981  0.98037  1.0000
  C  Sn27      1.0  0.07263  0.18343  0.96913  1.0000
  C   C182      1.0  0.05580  0.17575  0.99613  1.0000
  C  Sn28      1.0  0.05505  0.18994  0.03415  1.0000
  O  Te25      1.0  0.07214  0.23480  0.08322  1.0000
  O  Te26      1.0  0.10662  0.21796  0.95388  1.0000
  O  Te27      1.0  0.07253  0.16495  0.93126  1.0000
  O  Te28      1.0  0.03805  0.18181  0.06063  1.0000
  Mg  Mg13      1.0  0.09924  0.18554  0.90571  1.0000
  Mg  Mg14      1.0  0.04540  0.21423  0.10879  1.0000
  C  Sn29      1.0  0.92028  0.82759  0.47408  1.0000
  C   C183      1.0  0.93658  0.83635  0.50203  1.0000
  C  Sn30      1.0  0.94219  0.80866  0.53157  1.0000
  C  Sn31      1.0  0.93129  0.77141  0.53320  1.0000
  C   C184      1.0  0.91500  0.76266  0.50526  1.0000
  C  Sn32      1.0  0.90938  0.79034  0.47571  1.0000
  O  Te29      1.0  0.91494  0.85572  0.44480  1.0000
  O  Te30      1.0  0.95854  0.81810  0.55919  1.0000
  O  Te31      1.0  0.93665  0.74327  0.56251  1.0000
  O  Te32      1.0  0.89305  0.78091  0.44809  1.0000
  Mg  Mg15      1.0  0.96002  0.76996  0.59344  1.0000
  Mg  Mg16      1.0  0.89156  0.82902  0.41383  1.0000
  C  Sn33      1.0  0.06318  0.89734  0.01479  1.0000
  C   C185      1.0  0.08155  0.89657  0.98938  1.0000
  C  Sn34      1.0  0.08901  0.92845  0.96617  1.0000
  C  Sn35      1.0  0.07842  0.96582  0.96841  1.0000
  C   C186      1.0  0.06058  0.97052  0.99381  1.0000
  C  Sn36      1.0  0.05258  0.93471  0.01704  1.0000
  O  Te33      1.0  0.05600  0.86507  0.03773  1.0000
  O  Te34      1.0  0.10688  0.92301  0.94098  1.0000
  O  Te35      1.0  0.08562  0.99810  0.94544  1.0000
  O  Te36      1.0  0.03473  0.94013  0.04222  1.0000
  Mg  Mg17      1.0  0.11060  0.97595  0.91565  1.0000
  Mg  Mg18      1.0  0.03100  0.88723  0.06757  1.0000
  C  Sn37      1.0  0.90999  0.05954  0.46819  1.0000
  C   C187      1.0  0.90904  0.09293  0.49347  1.0000
  C  Sn38      1.0  0.92687  0.10379  0.51705  1.0000
  C  Sn39      1.0  0.94607  0.08081  0.51531  1.0000
  C   C188      1.0  0.94702  0.04744  0.49004  1.0000
  C  Sn40      1.0  0.92918  0.03656  0.46646  1.0000
  O  Te37      1.0  0.89196  0.04923  0.44489  1.0000
  O  Te38      1.0  0.92553  0.13728  0.54210  1.0000
  O  Te39      1.0  0.96410  0.09114  0.53865  1.0000
  O  Te40      1.0  0.93052  0.00309  0.44141  1.0000
  Mg  Mg19      1.0  0.95438  0.13930  0.56807  1.0000
  Mg  Mg20      1.0  0.90384  0.00105  0.41542  1.0000
  C  Sn41      1.0  0.07523  0.08035  0.45549  1.0000
  C   C189      1.0  0.08180  0.10451  0.48773  1.0000
  C  Sn42      1.0  0.07681  0.09388  0.52736  1.0000
  C  Sn43      1.0  0.06500  0.05835  0.53493  1.0000
  C   C190      1.0  0.05843  0.03421  0.50271  1.0000
  C  Sn44      1.0  0.06342  0.04482  0.46307  1.0000
  O  Te41      1.0  0.08040  0.09156  0.41612  1.0000
  O  Te42      1.0  0.08355  0.11851  0.55909  1.0000
  O  Te43      1.0  0.05982  0.04716  0.57435  1.0000
  O  Te44      1.0  0.05668  0.02021  0.43135  1.0000
  Mg  Mg21      1.0  0.07259  0.09051  0.60746  1.0000
  Mg  Mg22      1.0  0.06764  0.04817  0.38298  1.0000
  C  Sn45      1.0  0.92581  0.91855  0.02924  1.0000
  C   C191      1.0  0.91253  0.91117  0.99776  1.0000
  C  Sn46      1.0  0.91614  0.92497  0.95863  1.0000
  C  Sn47      1.0  0.93394  0.95062  0.95078  1.0000
  C   C192      1.0  0.94773  0.96192  0.98223  1.0000
  C  Sn48      1.0  0.94360  0.94419  0.02138  1.0000
  O  Te45      1.0  0.92189  0.90439  0.06812  1.0000
  O  Te46      1.0  0.90211  0.91325  0.92766  1.0000
  O  Te47      1.0  0.93785  0.96478  0.91185  1.0000
  O  Te48      1.0  0.95762  0.95589  0.05234  1.0000
  Mg  Mg23      1.0  0.91420  0.94041  0.87973  1.0000
  Mg  Mg24      1.0  0.94556  0.92874  0.10027  1.0000
  C  Sn49      1.0  0.37364  0.52703  0.29230  1.0000
  C   C193      1.0  0.39619  0.52947  0.29462  1.0000
  C  Sn50      1.0  0.40822  0.54265  0.26157  1.0000
  C  Sn51      1.0  0.39750  0.55366  0.22546  1.0000
  C   C194      1.0  0.37496  0.55123  0.22316  1.0000
  C  Sn52      1.0  0.36291  0.53804  0.25619  1.0000
  O  Te49      1.0  0.36193  0.51377  0.32571  1.0000
  O  Te50      1.0  0.43075  0.54483  0.26460  1.0000
  O  Te51      1.0  0.40923  0.56693  0.19204  1.0000
  O  Te52      1.0  0.34040  0.53587  0.25317  1.0000
  Mg  Mg25      1.0  0.43960  0.56474  0.21091  1.0000
  Mg  Mg26      1.0  0.33154  0.51598  0.30685  1.0000
  C  Sn53      1.0  0.59252  0.43779  0.74675  1.0000
  C   C195      1.0  0.59850  0.44025  0.78736  1.0000
  C  Sn54      1.0  0.61938  0.45236  0.79816  1.0000
  C  Sn55      1.0  0.63459  0.46224  0.76773  1.0000
  C   C196      1.0  0.62860  0.45978  0.72716  1.0000
  C  Sn56      1.0  0.60772  0.44766  0.71633  1.0000
  O  Te53      1.0  0.57156  0.42561  0.73665  1.0000
  O  Te54      1.0  0.62499  0.45458  0.83895  1.0000
  O  Te55      1.0  0.65556  0.47442  0.77787  1.0000
  O  Te56      1.0  0.60211  0.44545  0.67556  1.0000
  Mg  Mg27      1.0  0.65550  0.47277  0.83756  1.0000
  Mg  Mg28      1.0  0.57160  0.42729  0.67692  1.0000
  C  Sn57      1.0  0.37188  0.45143  0.79422  1.0000
  C   C197      1.0  0.39446  0.45058  0.79618  1.0000
  C  Sn58      1.0  0.40686  0.45836  0.76186  1.0000
  C  Sn59      1.0  0.39646  0.46720  0.72481  1.0000
  C   C198      1.0  0.37389  0.46806  0.72286  1.0000
  C  Sn60      1.0  0.36149  0.46027  0.75717  1.0000
  O  Te57      1.0  0.35981  0.44356  0.82892  1.0000
  O  Te58      1.0  0.42941  0.45731  0.76456  1.0000
  O  Te59      1.0  0.40855  0.47507  0.69010  1.0000
  O  Te60      1.0  0.33894  0.46132  0.75449  1.0000
  Mg  Mg29      1.0  0.43881  0.47012  0.70899  1.0000
  Mg  Mg30      1.0  0.32953  0.44854  0.81003  1.0000
  C  Sn61      1.0  0.63441  0.52742  0.27274  1.0000
  C   C199      1.0  0.62801  0.52980  0.23237  1.0000
  C  Sn62      1.0  0.60687  0.54060  0.22243  1.0000
  C  Sn63      1.0  0.59180  0.54924  0.25349  1.0000
  C   C200      1.0  0.59820  0.54687  0.29383  1.0000
  C  Sn64      1.0  0.61935  0.53606  0.30380  1.0000
  O  Te61      1.0  0.65563  0.51656  0.28198  1.0000
  O  Te62      1.0  0.60084  0.54276  0.18186  1.0000
  O  Te63      1.0  0.57057  0.56011  0.24422  1.0000
  O  Te64      1.0  0.62537  0.53391  0.34435  1.0000
  Mg  Mg31      1.0  0.57010  0.55892  0.18451  1.0000
  Mg  Mg32      1.0  0.65611  0.51778  0.34173  1.0000
  C  Sn65      1.0  0.68130  0.46910  0.60009  1.0000
  C   C201      1.0  0.69602  0.44025  0.58714  1.0000
  C  Sn66      1.0  0.69640  0.40271  0.60520  1.0000
  C  Sn67      1.0  0.68175  0.39380  0.63685  1.0000
  C   C202      1.0  0.66703  0.42263  0.64977  1.0000
  C  Sn68      1.0  0.66664  0.46019  0.63173  1.0000
  O  Te65      1.0  0.68121  0.50644  0.58160  1.0000
  O  Te66      1.0  0.71128  0.37436  0.59175  1.0000
  O  Te67      1.0  0.68185  0.35643  0.65533  1.0000
  O  Te68      1.0  0.65178  0.48852  0.64516  1.0000
  Mg  Mg33      1.0  0.70513  0.32776  0.62643  1.0000
  Mg  Mg34      1.0  0.65791  0.53513  0.61049  1.0000
  C  Sn69      1.0  0.31992  0.53055  0.09725  1.0000
  C   C203      1.0  0.30499  0.55962  0.08592  1.0000
  C  Sn70      1.0  0.30436  0.59625  0.10608  1.0000
  C  Sn71      1.0  0.31897  0.60399  0.13822  1.0000
  C   C204      1.0  0.33390  0.57493  0.14953  1.0000
  C  Sn72      1.0  0.33453  0.53830  0.12939  1.0000
  O  Te69      1.0  0.32026  0.49415  0.07667  1.0000
  O  Te70      1.0  0.28928  0.62484  0.09422  1.0000
  O  Te71      1.0  0.31862  0.64043  0.15880  1.0000
  O  Te72      1.0  0.34960  0.50972  0.14123  1.0000
  Mg  Mg35      1.0  0.29513  0.66988  0.13151  1.0000
  Mg  Mg36      1.0  0.34378  0.46468  0.10396  1.0000
  C  Sn73      1.0  0.69868  0.59328  0.12181  1.0000
  C   C205      1.0  0.69828  0.56663  0.08929  1.0000
  C  Sn74      1.0  0.68138  0.53913  0.08519  1.0000
  C  Sn75      1.0  0.66452  0.53826  0.11417  1.0000
  C   C206      1.0  0.66492  0.56490  0.14666  1.0000
  C  Sn76      1.0  0.68182  0.59240  0.15079  1.0000
  O  Te73      1.0  0.71573  0.62052  0.12531  1.0000
  O  Te74      1.0  0.68134  0.51278  0.05243  1.0000
  O  Te75      1.0  0.64746  0.51099  0.11064  1.0000
  O  Te76      1.0  0.68186  0.61875  0.18352  1.0000
  Mg  Mg37      1.0  0.65460  0.48119  0.06077  1.0000
  Mg  Mg38      1.0  0.70859  0.65036  0.17520  1.0000
  C  Sn77      1.0  0.31792  0.39552  0.63085  1.0000
  C   C207      1.0  0.33162  0.42608  0.64423  1.0000
  C  Sn78      1.0  0.33116  0.46346  0.62583  1.0000
  C  Sn79      1.0  0.31670  0.47044  0.59337  1.0000
  C   C208      1.0  0.30302  0.43989  0.58001  1.0000
  C  Sn80      1.0  0.30347  0.40250  0.59840  1.0000
  O  Te77      1.0  0.31865  0.35839  0.64970  1.0000
  O  Te78      1.0  0.34501  0.49354  0.63973  1.0000
  O  Te79      1.0  0.31598  0.50761  0.57452  1.0000
  O  Te80      1.0  0.28962  0.37243  0.58452  1.0000
  Mg  Mg39      1.0  0.33800  0.53909  0.60429  1.0000
  Mg  Mg40      1.0  0.29661  0.32688  0.61994  1.0000
  C  Sn81      1.0  0.81432  0.54308  0.53208  1.0000
  C   C209      1.0  0.80320  0.52317  0.50124  1.0000
  C  Sn82      1.0  0.80642  0.53381  0.46097  1.0000
  C  Sn83      1.0  0.82108  0.56497  0.45133  1.0000
  C   C210      1.0  0.83220  0.58486  0.48216  1.0000
  C  Sn84      1.0  0.82898  0.57425  0.52244  1.0000
  O  Te81      1.0  0.81084  0.53195  0.57212  1.0000
  O  Te82      1.0  0.79511  0.51348  0.43066  1.0000
  O  Te83      1.0  0.82455  0.57609  0.41126  1.0000
  O  Te84      1.0  0.84028  0.59455  0.55274  1.0000
  Mg  Mg41      1.0  0.80536  0.53951  0.38066  1.0000
  Mg  Mg42      1.0  0.83006  0.56853  0.60275  1.0000
  C  Sn85      1.0  0.18336  0.46700  0.94810  1.0000
  C   C211      1.0  0.18712  0.49014  0.98257  1.0000
  C  Sn86      1.0  0.18320  0.47023  0.02092  1.0000
  C  Sn87      1.0  0.17592  0.43029  0.02490  1.0000
  C   C212      1.0  0.17270  0.41111  0.99044  1.0000
  C  Sn88      1.0  0.17608  0.42706  0.95208  1.0000
  O  Te85      1.0  0.18685  0.48357  0.91006  1.0000
  O  Te86      1.0  0.18706  0.49395  0.05495  1.0000
  O  Te87      1.0  0.17242  0.41372  0.06298  1.0000
  O  Te88      1.0  0.17222  0.40336  0.91807  1.0000
  Mg  Mg43      1.0  0.17996  0.45791  0.10024  1.0000
  Mg  Mg44      1.0  0.17933  0.43936  0.87276  1.0000
  C  Sn89      1.0  0.82023  0.43734  0.02969  1.0000
  C   C213      1.0  0.82756  0.42130  0.99489  1.0000
  C  Sn90      1.0  0.82685  0.44019  0.95743  1.0000
  C  Sn91      1.0  0.81919  0.47990  0.95469  1.0000
  C   C214      1.0  0.81240  0.49986  0.98948  1.0000
  C  Sn92      1.0  0.81258  0.47705  0.02695  1.0000
  O  Te89      1.0  0.82109  0.41788  0.06682  1.0000
  O  Te90      1.0  0.83372  0.41960  0.92306  1.0000
  O  Te91      1.0  0.81834  0.49935  0.91752  1.0000
  O  Te92      1.0  0.80571  0.49762  0.06130  1.0000
  Mg  Mg45      1.0  0.82949  0.45885  0.87933  1.0000
  Mg  Mg46      1.0  0.80995  0.45841  0.10505  1.0000
  C  Sn93      1.0  0.17453  0.53207  0.52597  1.0000
  C   C215      1.0  0.18615  0.51268  0.49558  1.0000
  C  Sn94      1.0  0.19171  0.53280  0.46024  1.0000
  C  Sn95      1.0  0.18555  0.57316  0.45518  1.0000
  C   C216      1.0  0.17394  0.59253  0.48556  1.0000
  C  Sn96      1.0  0.16836  0.57242  0.52091  1.0000
  O  Te93      1.0  0.16914  0.51136  0.56105  1.0000
  O  Te94      1.0  0.20333  0.51279  0.43027  1.0000
  O  Te95      1.0  0.19095  0.59386  0.42006  1.0000
  O  Te96      1.0  0.15676  0.59242  0.55086  1.0000
  Mg  Mg47      1.0  0.20689  0.55374  0.38791  1.0000
  Mg  Mg48      1.0  0.15320  0.55151  0.59324  1.0000
  C  Sn97      1.0  0.67887  0.45345  0.40472  1.0000
  C   C217      1.0  0.68583  0.42301  0.43025  1.0000
  C  Sn98      1.0  0.68492  0.38327  0.41761  1.0000
  C  Sn99      1.0  0.67691  0.37374  0.37862  1.0000
  C   C218      1.0  0.66996  0.40416  0.35311  1.0000
  C  Sn100     1.0  0.67085  0.44392  0.36573  1.0000
  O  Te97      1.0  0.67992  0.49297  0.41799  1.0000
  O  Te98      1.0  0.69196  0.35335  0.44367  1.0000
  O  Te99      1.0  0.67586  0.33417  0.36536  1.0000
  O  Te100     1.0  0.66382  0.47382  0.33969  1.0000
  Mg  Mg49      1.0  0.68735  0.30398  0.41183  1.0000
  Mg  Mg50      1.0  0.66844  0.52320  0.37149  1.0000
  C  Sn101     1.0  0.31290  0.62891  0.90243  1.0000
  C   C219      1.0  0.30409  0.59434  0.91925  1.0000
  C  Sn102     1.0  0.31156  0.55685  0.90737  1.0000
  C  Sn103     1.0  0.32820  0.55384  0.87809  1.0000
  C   C220      1.0  0.33701  0.58840  0.86129  1.0000
  C  Sn104     1.0  0.32954  0.62590  0.87315  1.0000
  O  Te101     1.0  0.30518  0.66608  0.91475  1.0000
  O  Te102     1.0  0.30250  0.52271  0.92461  1.0000
  O  Te103     1.0  0.33592  0.51663  0.86577  1.0000
  O  Te104     1.0  0.33860  0.66003  0.85593  1.0000
  Mg  Mg51      1.0  0.31845  0.47882  0.89800  1.0000
  Mg  Mg52      1.0  0.32267  0.70393  0.88253  1.0000
  C  Sn105     1.0  0.67084  0.54565  0.88640  1.0000
  C   C221      1.0  0.66437  0.58032  0.86661  1.0000
  C  Sn106     1.0  0.67407  0.61691  0.87588  1.0000
  C  Sn107     1.0  0.69060  0.61888  0.90555  1.0000
  C   C222      1.0  0.69707  0.58422  0.92533  1.0000
  C  Sn108     1.0  0.68737  0.54761  0.91607  1.0000
  O  Te105     1.0  0.66092  0.50939  0.87665  1.0000
  O  Te106     1.0  0.66732  0.65118  0.85570  1.0000
  O  Te107     1.0  0.70052  0.65517  0.91530  1.0000
  O  Te108     1.0  0.69412  0.51336  0.93624  1.0000
  Mg  Mg53      1.0  0.68575  0.69357  0.87952  1.0000
  Mg  Mg54      1.0  0.67570  0.47095  0.91242  1.0000
  C  Sn109     1.0  0.30681  0.45142  0.38895  1.0000
  C   C223      1.0  0.30240  0.42144  0.41695  1.0000
  C  Sn110     1.0  0.31449  0.38634  0.41701  1.0000
  C  Sn111     1.0  0.33135  0.38111  0.38851  1.0000
  C   C224      1.0  0.33577  0.41108  0.36054  1.0000
  C  Sn112     1.0  0.32368  0.44619  0.36045  1.0000
  O  Te109     1.0  0.29452  0.48626  0.38944  1.0000
  O  Te110     1.0  0.30976  0.35678  0.44529  1.0000
  O  Te111     1.0  0.34365  0.34623  0.38804  1.0000
  O  Te112     1.0  0.32840  0.47574  0.33220  1.0000
  Mg  Mg55      1.0  0.33106  0.31462  0.43259  1.0000
  Mg  Mg56      1.0  0.30713  0.51792  0.34489  1.0000
  C  Sn113     1.0  0.82787  0.31768  0.46506  1.0000
  C   C225      1.0  0.84129  0.30609  0.49684  1.0000
  C  Sn114     1.0  0.83890  0.32312  0.53510  1.0000
  C  Sn115     1.0  0.82275  0.35233  0.54173  1.0000
  C   C226      1.0  0.80934  0.36390  0.50996  1.0000
  C  Sn116     1.0  0.81172  0.34689  0.47169  1.0000
  O  Te113     1.0  0.83056  0.30025  0.42706  1.0000
  O  Te114     1.0  0.85251  0.31106  0.56640  1.0000
  O  Te115     1.0  0.82008  0.36976  0.57977  1.0000
  O  Te116     1.0  0.79812  0.35893  0.44040  1.0000
  Mg  Mg57      1.0  0.84255  0.34348  0.61279  1.0000
  Mg  Mg58      1.0  0.80806  0.32652  0.39401  1.0000
  C  Sn117     1.0  0.18794  0.67579  0.97173  1.0000
  C   C227      1.0  0.19224  0.64439  0.00200  1.0000
  C  Sn118     1.0  0.18037  0.64397  0.03784  1.0000
  C  Sn119     1.0  0.16329  0.67155  0.04353  1.0000
  C   C228      1.0  0.15847  0.69898  0.01327  1.0000
  C  Sn120     1.0  0.17087  0.70337  0.97742  1.0000
  O  Te117     1.0  0.20002  0.67567  0.93614  1.0000
  O  Te118     1.0  0.18550  0.61625  0.06767  1.0000
  O  Te119     1.0  0.15121  0.67165  0.07915  1.0000
  O  Te120     1.0  0.16573  0.73107  0.94760  1.0000
  Mg  Mg59      1.0  0.16436  0.62814  0.11088  1.0000
  Mg  Mg60      1.0  0.18685  0.71919  0.90437  1.0000
  C  Sn121     1.0  0.81770  0.66516  0.04820  1.0000
  C   C229      1.0  0.80836  0.64795  0.01385  1.0000
  C  Sn122     1.0  0.81569  0.66332  0.97540  1.0000
  C  Sn123     1.0  0.83218  0.69254  0.97119  1.0000
  C   C230      1.0  0.84098  0.70578  0.00552  1.0000
  C  Sn124     1.0  0.83418  0.69438  0.04399  1.0000
  O  Te121     1.0  0.81065  0.65329  0.08634  1.0000
  O  Te122     1.0  0.80611  0.64570  0.94151  1.0000
  O  Te123     1.0  0.83922  0.70441  0.93301  1.0000
  O  Te124     1.0  0.84376  0.71198  0.07787  1.0000
  Mg  Mg61      1.0  0.82123  0.67176  0.89599  1.0000
  Mg  Mg62      1.0  0.82866  0.68593  0.12340  1.0000
  C  Sn125     1.0  0.18082  0.33367  0.46905  1.0000
  C   C231      1.0  0.18253  0.36564  0.49604  1.0000
  C  Sn126     1.0  0.17458  0.36223  0.53532  1.0000
  C  Sn127     1.0  0.16473  0.32610  0.54789  1.0000
  C   C232      1.0  0.16303  0.29415  0.52091  1.0000
  C  Sn128     1.0  0.17097  0.29754  0.48162  1.0000
  O  Te125     1.0  0.18889  0.33774  0.42993  1.0000
  O  Te126     1.0  0.17646  0.39460  0.56176  1.0000
  O  Te127     1.0  0.15666  0.32205  0.58705  1.0000
  O  Te128     1.0  0.16910  0.26518  0.45519  1.0000
  Mg  Mg63      1.0  0.16303  0.37452  0.61197  1.0000
  Mg  Mg64      1.0  0.18253  0.28522  0.40498  1.0000
  C  Sn129     1.0  0.44003  0.56009  0.33244  1.0000
  C   C233      1.0  0.42117  0.53755  0.32710  1.0000
  C  Sn130     1.0  0.41195  0.51726  0.35959  1.0000
  C  Sn131     1.0  0.42177  0.51957  0.39822  1.0000
  C   C234      1.0  0.44062  0.54210  0.40355  1.0000
  C  Sn132     1.0  0.44986  0.56239  0.37108  1.0000
  O  Te129     1.0  0.44897  0.58012  0.29954  1.0000
  O  Te130     1.0  0.39309  0.49491  0.35351  1.0000
  O  Te131     1.0  0.41281  0.49950  0.43114  1.0000
  O  Te132     1.0  0.46870  0.58474  0.37715  1.0000
  Mg  Mg65      1.0  0.38702  0.47293  0.40770  1.0000
  Mg  Mg66      1.0  0.47477  0.60674  0.32298  1.0000
  C  Sn133     1.0  0.55825  0.41602  0.86043  1.0000
  C   C235      1.0  0.55847  0.44073  0.89448  1.0000
  C  Sn134     1.0  0.57128  0.47512  0.89527  1.0000
  C  Sn135     1.0  0.58414  0.48503  0.86131  1.0000
  C   C236      1.0  0.58392  0.46033  0.82729  1.0000
  C  Sn136     1.0  0.57111  0.42593  0.82648  1.0000
  O  Te133     1.0  0.54531  0.38179  0.86031  1.0000
  O  Te134     1.0  0.57124  0.49935  0.92966  1.0000
  O  Te135     1.0  0.59709  0.51929  0.86147  1.0000
  O  Te136     1.0  0.57115  0.40171  0.79211  1.0000
  Mg  Mg67      1.0  0.59155  0.54282  0.91532  1.0000
  Mg  Mg68      1.0  0.55084  0.35825  0.80642  1.0000
  C  Sn137     1.0  0.43052  0.42160  0.84404  1.0000
  C   C237      1.0  0.41301  0.44715  0.83797  1.0000
  C  Sn138     1.0  0.41106  0.48209  0.86072  1.0000
  C  Sn139     1.0  0.42695  0.49172  0.89014  1.0000
  C   C238      1.0  0.44444  0.46619  0.89619  1.0000
  C  Sn140     1.0  0.44640  0.43123  0.87346  1.0000
  O  Te137     1.0  0.43214  0.38683  0.82095  1.0000
  O  Te138     1.0  0.39341  0.50715  0.85412  1.0000
  O  Te139     1.0  0.42531  0.52652  0.91324  1.0000
  O  Te140     1.0  0.46404  0.40619  0.88004  1.0000
  Mg  Mg69      1.0  0.39833  0.55112  0.89313  1.0000
  Mg  Mg70      1.0  0.45914  0.36222  0.84105  1.0000
  C  Sn141     1.0  0.58325  0.50267  0.36601  1.0000
  C   C239      1.0  0.58297  0.52744  0.33221  1.0000
  C  Sn142     1.0  0.57017  0.56167  0.33186  1.0000
  C  Sn143     1.0  0.55740  0.57136  0.36602  1.0000
  C   C240      1.0  0.55768  0.54660  0.39979  1.0000
  C  Sn144     1.0  0.57047  0.51236  0.40016  1.0000
  O  Te141     1.0  0.59617  0.46861  0.36569  1.0000
  O  Te142     1.0  0.57015  0.58596  0.29771  1.0000
  O  Te143     1.0  0.54447  0.60545  0.36630  1.0000
  O  Te144     1.0  0.57050  0.48808  0.43429  1.0000
  Mg  Mg71      1.0  0.54991  0.62915  0.31265  1.0000
  Mg  Mg72      1.0  0.59075  0.44490  0.41940  1.0000
  C  Sn145     1.0  0.41757  0.52766  0.64255  1.0000
  C   C241      1.0  0.41507  0.55844  0.67068  1.0000
  C  Sn146     1.0  0.42592  0.59468  0.66559  1.0000
  C  Sn147     1.0  0.43955  0.60028  0.63166  1.0000
  C   C242      1.0  0.44205  0.56951  0.60356  1.0000
  C  Sn148     1.0  0.43121  0.53326  0.60862  1.0000
  O  Te145     1.0  0.40657  0.49168  0.64824  1.0000
  O  Te146     1.0  0.42316  0.62500  0.69412  1.0000
  O  Te147     1.0  0.45056  0.63629  0.62599  1.0000
  O  Te148     1.0  0.43396  0.50295  0.58011  1.0000
  Mg  Mg73      1.0  0.44159  0.66864  0.67312  1.0000
  Mg  Mg74      1.0  0.41553  0.45931  0.60107  1.0000
  C  Sn149     1.0  0.58107  0.46103  0.10878  1.0000
  C   C243      1.0  0.56370  0.43526  0.10122  1.0000
  C  Sn150     1.0  0.55711  0.40786  0.13041  1.0000
  C  Sn151     1.0  0.56810  0.40621  0.16795  1.0000
  C   C244      1.0  0.58546  0.43197  0.17549  1.0000
  C  Sn152     1.0  0.59206  0.45938  0.14632  1.0000
  O  Te149     1.0  0.58738  0.48818  0.07916  1.0000
  O  Te150     1.0  0.53970  0.38239  0.12215  1.0000
  O  Te151     1.0  0.56177  0.37902  0.19757  1.0000
  O  Te152     1.0  0.60945  0.48484  0.15456  1.0000
  Mg  Mg75      1.0  0.53715  0.35057  0.17212  1.0000
  Mg  Mg76      1.0  0.61202  0.51668  0.10463  1.0000
  C  Sn153     1.0  0.40958  0.46452  0.12717  1.0000
  C   C245      1.0  0.40747  0.43597  0.15752  1.0000
  C  Sn154     1.0  0.42463  0.41052  0.16654  1.0000
  C  Sn155     1.0  0.44432  0.41370  0.14479  1.0000
  C   C246      1.0  0.44642  0.44225  0.11448  1.0000
  C  Sn156     1.0  0.42926  0.46770  0.10543  1.0000
  O  Te153     1.0  0.39221  0.48965  0.11867  1.0000
  O  Te154     1.0  0.42214  0.38220  0.19699  1.0000
  O  Te155     1.0  0.46169  0.38854  0.15333  1.0000
  O  Te156     1.0  0.43175  0.49602  0.07500  1.0000
  Mg  Mg77      1.0  0.45045  0.35476  0.19749  1.0000
  Mg  Mg78      1.0  0.40346  0.52348  0.07450  1.0000
  C  Sn157     1.0  0.56471  0.59872  0.63427  1.0000
  C   C247      1.0  0.56147  0.56797  0.60631  1.0000
  C  Sn158     1.0  0.57119  0.53088  0.61197  1.0000
  C  Sn159     1.0  0.58442  0.52438  0.64629  1.0000
  C   C248      1.0  0.58765  0.55511  0.67423  1.0000
  C  Sn160     1.0  0.57794  0.59222  0.66860  1.0000
  O  Te157     1.0  0.55483  0.63555  0.62801  1.0000
  O  Te158     1.0  0.56771  0.50060  0.58360  1.0000
  O  Te159     1.0  0.59430  0.48751  0.65253  1.0000
  O  Te160     1.0  0.58141  0.62248  0.69695  1.0000
  Mg  Mg79      1.0  0.58467  0.45560  0.60542  1.0000
  Mg  Mg80      1.0  0.56445  0.66749  0.67517  1.0000
  C  Sn161     1.0  0.10278  0.17649  0.52712  1.0000
  C   C249      1.0  0.09968  0.14735  0.49739  1.0000
  C  Sn162     1.0  0.11503  0.14203  0.46694  1.0000
  C  Sn163     1.0  0.13386  0.16632  0.46619  1.0000
  C   C250      1.0  0.13695  0.19543  0.49591  1.0000
  C  Sn164     1.0  0.12161  0.20078  0.52637  1.0000
  O  Te161     1.0  0.08723  0.18129  0.55728  1.0000
  O  Te162     1.0  0.11158  0.11271  0.43754  1.0000
  O  Te163     1.0  0.14941  0.16149  0.43600  1.0000
  O  Te164     1.0  0.12506  0.23007  0.55576  1.0000
  Mg  Mg81      1.0  0.13744  0.11756  0.40266  1.0000
  Mg  Mg82      1.0  0.09921  0.22524  0.59067  1.0000
  C  Sn165     1.0  0.88963  0.80632  0.01893  1.0000
  C   C251      1.0  0.87050  0.80684  0.99830  1.0000
  C  Sn166     1.0  0.86532  0.83353  0.96756  1.0000
  C  Sn167     1.0  0.88010  0.86427  0.95719  1.0000
  C   C252      1.0  0.89975  0.86768  0.97781  1.0000
  C  Sn168     1.0  0.90441  0.83706  0.00856  1.0000
  O  Te165     1.0  0.89448  0.77930  0.04956  1.0000
  O  Te166     1.0  0.84557  0.82952  0.94738  1.0000
  O  Te167     1.0  0.87524  0.89129  0.92654  1.0000
  O  Te168     1.0  0.92416  0.84106  0.02873  1.0000
  Mg  Mg83      1.0  0.84632  0.87358  0.90783  1.0000
  Mg  Mg84      1.0  0.92342  0.79700  0.06826  1.0000
  C  Sn169     1.0  0.11866  0.84748  0.02963  1.0000
  C   C253      1.0  0.11002  0.87119  0.99680  1.0000
  C  Sn170     1.0  0.11059  0.85413  0.95830  1.0000
  C  Sn171     1.0  0.12054  0.81651  0.95250  1.0000
  C   C254      1.0  0.12970  0.79676  0.98532  1.0000
  C  Sn172     1.0  0.12861  0.80985  0.02383  1.0000
  O  Te169     1.0  0.11790  0.86509  0.06785  1.0000
  O  Te170     1.0  0.10132  0.87447  0.92594  1.0000
  O  Te171     1.0  0.12130  0.79890  0.91424  1.0000
  O  Te172     1.0  0.13787  0.78953  0.05618  1.0000
  Mg  Mg85      1.0  0.10643  0.83823  0.87966  1.0000
  Mg  Mg86      1.0  0.13276  0.82573  0.10248  1.0000
  C  Sn173     1.0  0.88099  0.15552  0.52808  1.0000
  C   C255      1.0  0.89066  0.13544  0.49581  1.0000
  C  Sn174     1.0  0.89050  0.15196  0.45719  1.0000
  C  Sn175     1.0  0.88047  0.18936  0.45069  1.0000
  C   C256      1.0  0.87082  0.20942  0.48294  1.0000
  C  Sn176     1.0  0.87097  0.19291  0.52157  1.0000
  O  Te173     1.0  0.88135  0.13844  0.56643  1.0000
  O  Te174     1.0  0.90026  0.13132  0.42540  1.0000
  O  Te175     1.0  0.88012  0.20643  0.41230  1.0000
  O  Te176     1.0  0.86122  0.21354  0.55335  1.0000
  Mg  Mg87      1.0  0.89558  0.16685  0.37867  1.0000
  Mg  Mg88      1.0  0.86589  0.17804  0.60009  1.0000
  C  Sn177     1.0  0.12787  0.70157  0.47197  1.0000
  C   C257      1.0  0.13633  0.68094  0.50493  1.0000
  C  Sn178     1.0  0.12708  0.68517  0.54315  1.0000
  C  Sn179     1.0  0.10899  0.71052  0.54853  1.0000
  C   C258      1.0  0.10054  0.73112  0.51559  1.0000
  C  Sn180     1.0  0.10978  0.72692  0.47736  1.0000
  O  Te177     1.0  0.13737  0.69689  0.43404  1.0000
  O  Te178     1.0  0.13583  0.66425  0.57564  1.0000
  O  Te179     1.0  0.09950  0.71518  0.58650  1.0000
  O  Te180     1.0  0.10104  0.74781  0.44488  1.0000
  Mg  Mg89      1.0  0.11722  0.68041  0.62141  1.0000
  Mg  Mg90      1.0  0.11962  0.73166  0.39909  1.0000
  C  Sn181     1.0  0.88456  0.28557  0.04857  1.0000
  C   C259      1.0  0.89096  0.26316  0.01504  1.0000
  C  Sn182     1.0  0.88730  0.28073  0.97604  1.0000
  C  Sn183     1.0  0.87651  0.31753  0.97044  1.0000
  C   C260      1.0  0.86959  0.33598  0.00395  1.0000
  C  Sn184     1.0  0.87377  0.32237  0.04297  1.0000
  O  Te181     1.0  0.88892  0.27138  0.08728  1.0000
  O  Te182     1.0  0.89384  0.25779  0.94299  1.0000
  O  Te183     1.0  0.87216  0.33171  0.93169  1.0000
  O  Te184     1.0  0.86724  0.34529  0.07601  1.0000
  Mg  Mg91      1.0  0.88426  0.28976  0.89622  1.0000
  Mg  Mg92      1.0  0.87682  0.31336  0.12278  1.0000
  C  Sn185     1.0  0.12866  0.29862  0.04585  1.0000
  C   C261      1.0  0.13545  0.32153  0.01306  1.0000
  C  Sn186     1.0  0.12523  0.32268  0.97605  1.0000
  C  Sn187     1.0  0.10732  0.29645  0.97173  1.0000
  C   C262      1.0  0.10000  0.26962  0.00451  1.0000
  C  Sn188     1.0  0.11074  0.27240  0.04153  1.0000
  O  Te185     1.0  0.13964  0.30190  0.08256  1.0000
  O  Te186     1.0  0.13233  0.34587  0.94369  1.0000
  O  Te187     1.0  0.09633  0.29319  0.93497  1.0000
  O  Te188     1.0  0.10365  0.24923  0.07387  1.0000
  Mg  Mg93      1.0  0.11209  0.33094  0.89977  1.0000
  Mg  Mg94      1.0  0.12387  0.26415  0.11781  1.0000
  C  Sn189     1.0  0.88410  0.71206  0.46659  1.0000
  C   C263      1.0  0.88989  0.73844  0.49755  1.0000
  C  Sn190     1.0  0.88513  0.72936  0.53768  1.0000
  C  Sn191     1.0  0.87437  0.69315  0.54706  1.0000
  C   C264      1.0  0.86859  0.66679  0.51612  1.0000
  C  Sn192     1.0  0.87334  0.67585  0.47598  1.0000
  O  Te189     1.0  0.88903  0.72175  0.42669  1.0000
  O  Te190     1.0  0.89107  0.75621  0.56810  1.0000
  O  Te191     1.0  0.86945  0.68348  0.58700  1.0000
  O  Te192     1.0  0.86741  0.64902  0.44557  1.0000
  Mg  Mg95      1.0  0.88085  0.72965  0.61784  1.0000
  Mg  Mg96      1.0  0.87763  0.67553  0.39582  1.0000
