data_image0
_chemical_formula_structural       H224C312N32C2Sn2C2HTe2HMgC2Sn2C2HTe2HMgC2Sn2C2HTe2HMgC2Sn2C2HTe2HMgC2Sn2C2HTe2HMgC2Sn2C2HTe2HMgC2Sn2C2HTe2HMgC2Sn2C2HTe2HMgC2Sn2C2HTe2HMgC2Sn2C2HTe2HMgC2Sn2C2HTe2HMgC2Sn2C2HTe2HMgC2Sn2C2HTe2HMgC2Sn2C2HTe2HMgC2Sn2C2HTe2HMgC2Sn2C2HTe2HMgC2Sn2C2HTe2HMgC2Sn2C2HTe2HMgC2Sn2C2HTe2HMgC2Sn2C2HTe2HMgC2Sn2C2HTe2HMgC2Sn2C2HTe2HMgC2Sn2C2HTe2HMgC2Sn2C2HTe2HMg
_chemical_formula_sum              "H272 C408 N32 Sn48 Te48 Mg24"
_cell_length_a       61.7979
_cell_length_b       33.5453
_cell_length_c       33.1432
_cell_angle_alpha    90.2285
_cell_angle_beta     90.0554
_cell_angle_gamma    90.2278

_symmetry_space_group_name_H-M    'P1'
_space_group_IT_number       1

loop_
  _space_group_symop_operation_xyz
  'x, y, z'

loop_
  _atom_site_type_symbol
  _atom_site_label
  _atom_site_symmetry_multiplicity
  _atom_site_fract_x
  _atom_site_fract_y
  _atom_site_fract_z
  _atom_site_occupancy
  H   H1        1.0  0.73018  0.40345  0.40340  1.0000
  H   H2        1.0  0.26961  0.59375  0.90266  1.0000
  H   H3        1.0  0.73111  0.56150  0.90144  1.0000
  H   H4        1.0  0.26776  0.40494  0.40358  1.0000
  H   H5        1.0  0.75540  0.41087  0.42881  1.0000
  H   H6        1.0  0.24453  0.59182  0.92936  1.0000
  H   H7        1.0  0.74151  0.60835  0.91617  1.0000
  H   H8        1.0  0.24289  0.41203  0.43008  1.0000
  H   H9        1.0  0.74030  0.45208  0.41177  1.0000
  H   H10       1.0  0.25745  0.54735  0.91444  1.0000
  H   H11       1.0  0.75631  0.56485  0.92772  1.0000
  H   H12       1.0  0.25772  0.45345  0.41221  1.0000
  H   H13       1.0  0.75508  0.45862  0.57099  1.0000
  H   H14       1.0  0.24685  0.53927  0.07261  1.0000
  H   H15       1.0  0.75462  0.53881  0.07183  1.0000
  H   H16       1.0  0.24536  0.46171  0.57190  1.0000
  H   H17       1.0  0.74851  0.41042  0.58791  1.0000
  H   H18       1.0  0.25005  0.58983  0.08571  1.0000
  H   H19       1.0  0.74918  0.58791  0.08753  1.0000
  H   H20       1.0  0.25138  0.41307  0.58829  1.0000
  H   H21       1.0  0.73149  0.45079  0.60102  1.0000
  H   H22       1.0  0.26939  0.55469  0.10257  1.0000
  H   H23       1.0  0.73130  0.54899  0.10165  1.0000
  H   H24       1.0  0.26911  0.45277  0.60113  1.0000
  H   H25       1.0  0.66340  0.39878  0.48001  1.0000
  H   H26       1.0  0.33609  0.60634  0.98128  1.0000
  H   H27       1.0  0.66165  0.55052  0.99781  1.0000
  H   H28       1.0  0.33447  0.39013  0.48987  1.0000
  H   H29       1.0  0.66105  0.44515  0.50478  1.0000
  H   H30       1.0  0.33894  0.55711  0.99859  1.0000
  H   H31       1.0  0.66376  0.59027  0.03274  1.0000
  H   H32       1.0  0.33765  0.44189  0.48371  1.0000
  H   H33       1.0  0.66421  0.40144  0.53368  1.0000
  H   H34       1.0  0.33638  0.59640  0.03398  1.0000
  H   H35       1.0  0.66426  0.59962  0.97992  1.0000
  H   H36       1.0  0.33685  0.42119  0.53304  1.0000
  H   H37       1.0  0.67831  0.48436  0.56601  1.0000
  H   H38       1.0  0.32309  0.51710  0.06229  1.0000
  H   H39       1.0  0.32067  0.48936  0.56470  1.0000
  H   H40       1.0  0.65637  0.48493  0.62929  1.0000
  H   H41       1.0  0.34507  0.51403  0.12548  1.0000
  H   H42       1.0  0.34235  0.49223  0.62838  1.0000
  H   H43       1.0  0.68610  0.37516  0.66564  1.0000
  H   H44       1.0  0.31461  0.62117  0.16789  1.0000
  H   H45       1.0  0.31469  0.38029  0.66500  1.0000
  H   H46       1.0  0.70728  0.37376  0.60185  1.0000
  H   H47       1.0  0.29322  0.62495  0.10448  1.0000
  H   H48       1.0  0.29377  0.37680  0.60093  1.0000
  H   H49       1.0  0.31163  0.65003  0.93375  1.0000
  H   H50       1.0  0.69266  0.64517  0.92893  1.0000
  H   H51       1.0  0.33444  0.65581  0.87226  1.0000
  H   H52       1.0  0.67012  0.65062  0.86685  1.0000
  H   H53       1.0  0.30650  0.52354  0.91478  1.0000
  H   H54       1.0  0.69039  0.51744  0.91955  1.0000
  H   H55       1.0  0.32906  0.52952  0.85237  1.0000
  H   H56       1.0  0.66831  0.52295  0.85630  1.0000
  H   H57       1.0  0.83409  0.42185  0.05280  1.0000
  H   H58       1.0  0.81243  0.48454  0.05738  1.0000
  H   H59       1.0  0.83006  0.42654  0.92345  1.0000
  H   H60       1.0  0.80803  0.48828  0.92805  1.0000
  H   H61       1.0  0.76746  0.53480  0.48952  1.0000
  H   H62       1.0  0.23130  0.46690  0.00523  1.0000
  H   H63       1.0  0.77054  0.46655  0.00250  1.0000
  H   H64       1.0  0.23246  0.53560  0.50502  1.0000
  H   H65       1.0  0.74806  0.51002  0.52016  1.0000
  H   H66       1.0  0.25550  0.49602  0.00862  1.0000
  H   H67       1.0  0.74633  0.49423  0.01116  1.0000
  H   H68       1.0  0.25623  0.50547  0.50532  1.0000
  H   H69       1.0  0.74694  0.50430  0.46744  1.0000
  H   H70       1.0  0.24366  0.48558  0.96115  1.0000
  H   H71       1.0  0.75614  0.48765  0.96165  1.0000
  H   H72       1.0  0.24295  0.51631  0.45946  1.0000
  H   H73       1.0  0.83714  0.46773  0.47180  1.0000
  H   H74       1.0  0.16025  0.53398  0.00666  1.0000
  H   H75       1.0  0.83948  0.53887  0.97795  1.0000
  H   H76       1.0  0.16170  0.46941  0.47704  1.0000
  H   H77       1.0  0.83998  0.41593  0.48231  1.0000
  H   H78       1.0  0.16219  0.56123  0.96142  1.0000
  H   H79       1.0  0.84035  0.59167  0.98425  1.0000
  H   H80       1.0  0.15910  0.41683  0.48304  1.0000
  H   H81       1.0  0.84056  0.45144  0.52188  1.0000
  H   H82       1.0  0.15910  0.58698  0.00761  1.0000
  H   H83       1.0  0.84088  0.56003  0.02674  1.0000
  H   H84       1.0  0.15890  0.44877  0.52556  1.0000
  H   H85       1.0  0.75012  0.36078  0.52451  1.0000
  H   H86       1.0  0.24911  0.64072  0.03084  1.0000
  H   H87       1.0  0.74746  0.64102  0.00236  1.0000
  H   H88       1.0  0.24810  0.36302  0.53109  1.0000
  H   H89       1.0  0.77600  0.33727  0.52292  1.0000
  H   H90       1.0  0.22491  0.66618  0.01723  1.0000
  H   H91       1.0  0.76550  0.65191  0.04256  1.0000
  H   H92       1.0  0.22341  0.33739  0.52035  1.0000
  H   H93       1.0  0.76115  0.34519  0.47808  1.0000
  H   H94       1.0  0.24377  0.65123  0.97987  1.0000
  H   H95       1.0  0.77234  0.66656  0.99318  1.0000
  H   H96       1.0  0.24161  0.35000  0.48106  1.0000
  H   H97       1.0  0.80305  0.34361  0.44506  1.0000
  H   H98       1.0  0.19211  0.65281  0.94255  1.0000
  H   H99       1.0  0.80929  0.65170  0.94210  1.0000
  H   H100      1.0  0.19841  0.34022  0.45118  1.0000
  H   H101      1.0  0.82701  0.28375  0.44862  1.0000
  H   H102      1.0  0.16937  0.71428  0.94786  1.0000
  H   H103      1.0  0.83210  0.71352  0.94634  1.0000
  H   H104      1.0  0.17536  0.27909  0.45719  1.0000
  H   H105      1.0  0.84916  0.32152  0.56563  1.0000
  H   H106      1.0  0.15974  0.69141  0.07404  1.0000
  H   H107      1.0  0.83970  0.69561  0.07384  1.0000
  H   H108      1.0  0.14945  0.32405  0.56867  1.0000
  H   H109      1.0  0.82503  0.38064  0.56246  1.0000
  H   H110      1.0  0.18247  0.63046  0.06880  1.0000
  H   H111      1.0  0.81697  0.63425  0.06967  1.0000
  H   H112      1.0  0.17289  0.38416  0.56333  1.0000
  H   H113      1.0  0.36998  0.53634  0.32825  1.0000
  H   H114      1.0  0.36896  0.46604  0.82901  1.0000
  H   H115      1.0  0.63021  0.53676  0.32824  1.0000
  H   H116      1.0  0.34690  0.53836  0.26708  1.0000
  H   H117      1.0  0.34565  0.46532  0.76799  1.0000
  H   H118      1.0  0.65344  0.53866  0.26725  1.0000
  H   H119      1.0  0.63072  0.45496  0.16677  1.0000
  H   H120      1.0  0.36798  0.45465  0.16438  1.0000
  H   H121      1.0  0.65700  0.45674  0.22305  1.0000
  H   H122      1.0  0.34084  0.45624  0.21947  1.0000
  H   H123      1.0  0.86255  0.31933  0.94582  1.0000
  H   H124      1.0  0.87528  0.66100  0.44798  1.0000
  H   H125      1.0  0.88858  0.26461  0.94302  1.0000
  H   H126      1.0  0.90070  0.71795  0.44494  1.0000
  H   H127      1.0  0.90002  0.27629  0.07072  1.0000
  H   H128      1.0  0.88700  0.74611  0.56900  1.0000
  H   H129      1.0  0.87425  0.33285  0.07306  1.0000
  H   H130      1.0  0.86141  0.68869  0.57199  1.0000
  H   H131      1.0  0.10108  0.79577  0.45730  1.0000
  H   H132      1.0  0.89812  0.20337  0.95346  1.0000
  H   H133      1.0  0.07334  0.84836  0.45332  1.0000
  H   H134      1.0  0.92582  0.15090  0.94922  1.0000
  H   H135      1.0  0.47797  0.51307  0.35377  1.0000
  H   H136      1.0  0.52086  0.47973  0.85252  1.0000
  H   H137      1.0  0.47727  0.48210  0.85358  1.0000
  H   H138      1.0  0.52151  0.51216  0.35330  1.0000
  H   H139      1.0  0.58273  0.55552  0.46099  1.0000
  H   H140      1.0  0.41691  0.44033  0.96232  1.0000
  H   H141      1.0  0.58107  0.43215  0.95926  1.0000
  H   H142      1.0  0.41810  0.55863  0.46166  1.0000
  H   H143      1.0  0.58282  0.56391  0.54184  1.0000
  H   H144      1.0  0.41720  0.43307  0.04330  1.0000
  H   H145      1.0  0.58154  0.42584  0.04033  1.0000
  H   H146      1.0  0.41831  0.56810  0.54241  1.0000
  H   H147      1.0  0.57706  0.49172  0.42071  1.0000
  H   H148      1.0  0.42331  0.50559  0.92195  1.0000
  H   H149      1.0  0.53984  0.58420  0.36467  1.0000
  H   H150      1.0  0.45802  0.40980  0.86543  1.0000
  H   H151      1.0  0.47894  0.55411  0.65757  1.0000
  H   H152      1.0  0.52217  0.44658  0.15629  1.0000
  H   H153      1.0  0.47861  0.44909  0.15729  1.0000
  H   H154      1.0  0.52248  0.55145  0.65709  1.0000
  H   H155      1.0  0.66025  0.40691  0.71059  1.0000
  H   H156      1.0  0.34025  0.58803  0.21127  1.0000
  H   H157      1.0  0.65943  0.58674  0.20954  1.0000
  H   H158      1.0  0.33928  0.41472  0.71056  1.0000
  H   H159      1.0  0.42545  0.45614  0.75396  1.0000
  H   H160      1.0  0.57350  0.53927  0.25298  1.0000
  H   H161      1.0  0.42681  0.54502  0.25378  1.0000
  H   H162      1.0  0.40214  0.45681  0.69289  1.0000
  H   H163      1.0  0.59678  0.53987  0.19201  1.0000
  H   H164      1.0  0.40363  0.54644  0.19265  1.0000
  H   H165      1.0  0.43236  0.41068  0.80807  1.0000
  H   H166      1.0  0.56532  0.58516  0.30715  1.0000
  H   H167      1.0  0.39760  0.50670  0.86441  1.0000
  H   H168      1.0  0.60272  0.49281  0.36319  1.0000
  H   H169      1.0  0.41634  0.41505  0.24850  1.0000
  H   H170      1.0  0.58278  0.40473  0.24606  1.0000
  H   H171      1.0  0.38899  0.41524  0.30307  1.0000
  H   H172      1.0  0.60945  0.40496  0.30176  1.0000
  H   H173      1.0  0.11674  0.12249  0.43764  1.0000
  H   H174      1.0  0.14189  0.17978  0.43769  1.0000
  H   H175      1.0  0.09441  0.15785  0.55568  1.0000
  H   H176      1.0  0.11972  0.21324  0.55594  1.0000
  H   H177      1.0  0.04326  0.80314  0.56065  1.0000
  H   H178      1.0  0.95860  0.20133  0.05183  1.0000
  H   H179      1.0  0.07043  0.74935  0.56396  1.0000
  H   H180      1.0  0.93177  0.25541  0.05480  1.0000
  H   H181      1.0  0.10173  0.92881  0.94088  1.0000
  H   H182      1.0  0.09123  0.08625  0.43344  1.0000
  H   H183      1.0  0.08170  0.97684  0.50860  1.0000
  H   H184      1.0  0.91838  0.02499  0.00394  1.0000
  H   H185      1.0  0.08268  0.02439  0.00904  1.0000
  H   H186      1.0  0.91673  0.97602  0.50514  1.0000
  H   H187      1.0  0.08250  0.89659  0.51366  1.0000
  H   H188      1.0  0.08249  0.10462  0.01446  1.0000
  H   H189      1.0  0.91723  0.89572  0.50900  1.0000
  H   H190      1.0  0.98279  0.06833  0.99219  1.0000
  H   H191      1.0  0.01729  0.93244  0.49811  1.0000
  H   H192      1.0  0.98172  0.93771  0.49372  1.0000
  H   H193      1.0  0.01825  0.06411  0.99238  1.0000
  H   H194      1.0  0.97964  0.21812  0.98584  1.0000
  H   H195      1.0  0.02107  0.78301  0.49392  1.0000
  H   H196      1.0  0.97752  0.78411  0.49117  1.0000
  H   H197      1.0  0.02315  0.21693  0.98819  1.0000
  H   H198      1.0  0.50049  0.54409  0.47091  1.0000
  H   H199      1.0  0.50023  0.55244  0.53582  1.0000
  H   H200      1.0  0.49936  0.44971  0.97021  1.0000
  H   H201      1.0  0.49941  0.44457  0.03539  1.0000
  H   H202      1.0  0.35520  0.62578  0.81872  1.0000
  H   H203      1.0  0.64766  0.62002  0.81501  1.0000
  H   H204      1.0  0.64529  0.37593  0.31737  1.0000
  H   H205      1.0  0.35427  0.38159  0.31761  1.0000
  H   H206      1.0  0.15890  0.63998  0.45564  1.0000
  H   H207      1.0  0.06436  0.03219  0.43365  1.0000
  H   H208      1.0  0.07881  0.10739  0.55978  1.0000
  H   H209      1.0  0.05129  0.05457  0.55886  1.0000
  H   H210      1.0  0.13510  0.26476  0.54234  1.0000
  H   H211      1.0  0.86547  0.26456  0.53510  1.0000
  H   H212      1.0  0.84114  0.63890  0.45523  1.0000
  H   H213      1.0  0.97866  0.08696  0.47627  1.0000
  H   H214      1.0  0.02222  0.08551  0.47951  1.0000
  H   H215      1.0  0.91792  0.10533  0.00950  1.0000
  H   H216      1.0  0.97792  0.91590  0.97299  1.0000
  H   H217      1.0  0.02156  0.91467  0.97269  1.0000
  H   H218      1.0  0.07451  0.98278  0.94084  1.0000
  H   H219      1.0  0.04273  0.92905  0.04229  1.0000
  H   H220      1.0  0.06959  0.87449  0.04199  1.0000
  H   H221      1.0  0.14168  0.74574  0.04468  1.0000
  H   H222      1.0  0.15713  0.36470  0.95197  1.0000
  H   H223      1.0  0.85229  0.37762  0.95305  1.0000
  H   H224      1.0  0.85784  0.75090  0.04290  1.0000
  C   C1        1.0  0.62594  0.44378  0.19620  1.0000
  C   C2        1.0  0.37263  0.44589  0.19472  1.0000
  C   C3        1.0  0.64083  0.44472  0.22761  1.0000
  C   C4        1.0  0.35732  0.44662  0.22539  1.0000
  C   C5        1.0  0.07285  0.82697  0.47788  1.0000
  C   C6        1.0  0.92692  0.17354  0.97272  1.0000
  C   C7        1.0  0.08834  0.79699  0.47991  1.0000
  C   C8        1.0  0.91147  0.20362  0.97488  1.0000
  C   C9        1.0  0.39966  0.42283  0.24165  1.0000
  C   C10       1.0  0.59923  0.41492  0.24041  1.0000
  C   C11       1.0  0.38432  0.42279  0.27240  1.0000
  C   C12       1.0  0.61421  0.41496  0.27185  1.0000
  C   C13       1.0  0.05567  0.92888  0.02009  1.0000
  C   C14       1.0  0.06013  0.06154  0.53138  1.0000
  C   C15       1.0  0.07092  0.89843  0.02007  1.0000
  C   C16       1.0  0.07567  0.09174  0.53159  1.0000
  C   C17       1.0  0.45398  0.55403  0.53613  1.0000
  C   C18       1.0  0.54595  0.44096  0.03452  1.0000
  C   C19       1.0  0.45311  0.44532  0.03633  1.0000
  C   C20       1.0  0.54687  0.55160  0.53545  1.0000
  C   C21       1.0  0.46055  0.55687  0.57696  1.0000
  C   C22       1.0  0.53967  0.44023  0.07555  1.0000
  C   C23       1.0  0.45979  0.44417  0.07717  1.0000
  C   C24       1.0  0.54041  0.55391  0.57632  1.0000
  C   C25       1.0  0.63523  0.43024  0.26598  1.0000
  C   C26       1.0  0.36291  0.43493  0.26472  1.0000
  C   C27       1.0  0.56923  0.55697  0.52237  1.0000
  C   C28       1.0  0.43069  0.43968  0.02359  1.0000
  C   C29       1.0  0.56803  0.43342  0.02104  1.0000
  C   C30       1.0  0.43171  0.56022  0.52297  1.0000
  C   C31       1.0  0.98289  0.15160  0.99600  1.0000
  C   C32       1.0  0.01746  0.84978  0.50144  1.0000
  C   C33       1.0  0.98212  0.85075  0.49937  1.0000
  C   C34       1.0  0.01823  0.15056  0.99739  1.0000
  C   C35       1.0  0.99005  0.19271  0.99068  1.0000
  C   C36       1.0  0.01047  0.80848  0.49672  1.0000
  C   C37       1.0  0.98845  0.80906  0.49539  1.0000
  C   C38       1.0  0.01207  0.19210  0.99171  1.0000
  C   C39       1.0  0.94424  0.17207  0.00026  1.0000
  C   C40       1.0  0.05624  0.82968  0.50676  1.0000
  C   C41       1.0  0.86706  0.33124  0.00983  1.0000
  C   C42       1.0  0.86613  0.67140  0.51014  1.0000
  C   C43       1.0  0.04001  0.13824  0.00078  1.0000
  C   C44       1.0  0.96023  0.86291  0.50017  1.0000
  C   C45       1.0  0.03948  0.86128  0.50424  1.0000
  C   C46       1.0  0.96083  0.14024  0.99810  1.0000
  C   C47       1.0  0.37746  0.53903  0.29866  1.0000
  C   C48       1.0  0.37627  0.46338  0.79926  1.0000
  C   C49       1.0  0.62282  0.53810  0.29845  1.0000
  C   C50       1.0  0.36440  0.54087  0.26438  1.0000
  C   C51       1.0  0.36311  0.46241  0.76504  1.0000
  C   C52       1.0  0.63593  0.53978  0.26425  1.0000
  C   C53       1.0  0.06751  0.04887  0.46128  1.0000
  C   C54       1.0  0.07353  0.95914  0.96315  1.0000
  C   C55       1.0  0.40795  0.45742  0.75713  1.0000
  C   C56       1.0  0.59102  0.53995  0.25618  1.0000
  C   C57       1.0  0.40928  0.54441  0.25684  1.0000
  C   C58       1.0  0.39501  0.45791  0.72286  1.0000
  C   C59       1.0  0.60395  0.54020  0.22196  1.0000
  C   C60       1.0  0.39641  0.54508  0.22251  1.0000
  C   C61       1.0  0.05594  0.80140  0.53798  1.0000
  C   C62       1.0  0.94543  0.20201  0.03005  1.0000
  C   C63       1.0  0.07142  0.77134  0.53997  1.0000
  C   C64       1.0  0.93009  0.23224  0.03195  1.0000
  C   C65       1.0  0.45381  0.54615  0.47064  1.0000
  C   C66       1.0  0.54568  0.44656  0.96885  1.0000
  C   C67       1.0  0.45283  0.45126  0.97070  1.0000
  C   C68       1.0  0.54683  0.54449  0.46990  1.0000
  C   C69       1.0  0.46026  0.53870  0.43043  1.0000
  C   C70       1.0  0.53905  0.45368  0.92870  1.0000
  C   C71       1.0  0.45925  0.45774  0.93035  1.0000
  C   C72       1.0  0.54015  0.53729  0.42975  1.0000
  C   C73       1.0  0.40012  0.54139  0.29564  1.0000
  C   C74       1.0  0.39887  0.46007  0.79604  1.0000
  C   C75       1.0  0.60015  0.53889  0.29512  1.0000
  C   C76       1.0  0.37372  0.54425  0.22581  1.0000
  C   C77       1.0  0.37235  0.45929  0.72636  1.0000
  C   C78       1.0  0.62663  0.54124  0.22549  1.0000
  C   C79       1.0  0.56918  0.55279  0.48147  1.0000
  C   C80       1.0  0.43054  0.44330  0.98267  1.0000
  C   C81       1.0  0.56782  0.43665  0.98008  1.0000
  C   C82       1.0  0.43164  0.55552  0.48215  1.0000
  C   C83       1.0  0.98282  0.98160  0.98657  1.0000
  C   C84       1.0  0.01704  0.01974  0.49154  1.0000
  C   C85       1.0  0.98173  0.02095  0.48974  1.0000
  C   C86       1.0  0.01810  0.98050  0.98703  1.0000
  C   C87       1.0  0.98901  0.94041  0.97847  1.0000
  C   C88       1.0  0.01103  0.06100  0.48380  1.0000
  C   C89       1.0  0.98901  0.06173  0.48232  1.0000
  C   C90       1.0  0.01103  0.93977  0.97847  1.0000
  C   C91       1.0  0.05570  0.03968  0.49615  1.0000
  C   C92       1.0  0.05663  0.95970  0.99151  1.0000
  C   C93       1.0  0.13248  0.20139  0.49599  1.0000
  C   C94       1.0  0.04005  0.99165  0.99145  1.0000
  C   C95       1.0  0.95966  0.00977  0.49233  1.0000
  C   C96       1.0  0.03875  0.00773  0.49596  1.0000
  C   C97       1.0  0.96106  0.99367  0.99000  1.0000
  C   C98       1.0  0.48214  0.55542  0.59051  1.0000
  C   C99       1.0  0.51821  0.44296  0.08951  1.0000
  C   C100      1.0  0.48148  0.44493  0.09033  1.0000
  C   C101      1.0  0.51887  0.55367  0.59013  1.0000
  C   C102      1.0  0.48950  0.55434  0.63155  1.0000
  C   C103      1.0  0.51129  0.44541  0.13072  1.0000
  C   C104      1.0  0.48904  0.44664  0.13122  1.0000
  C   C105      1.0  0.51176  0.55313  0.63132  1.0000
  C   C106      1.0  0.48177  0.53230  0.41788  1.0000
  C   C107      1.0  0.51752  0.46069  0.91663  1.0000
  C   C108      1.0  0.48084  0.46264  0.91748  1.0000
  C   C109      1.0  0.51848  0.53159  0.41751  1.0000
  C   C110      1.0  0.48878  0.52056  0.37839  1.0000
  C   C111      1.0  0.51024  0.47262  0.87744  1.0000
  C   C112      1.0  0.48799  0.47381  0.87796  1.0000
  C   C113      1.0  0.51103  0.52011  0.37816  1.0000
  C   C114      1.0  0.04679  0.90107  0.50430  1.0000
  C   C115      1.0  0.95347  0.10047  0.99871  1.0000
  C   C116      1.0  0.04722  0.09851  0.00130  1.0000
  C   C117      1.0  0.95280  0.90254  0.49961  1.0000
  C   C118      1.0  0.06856  0.91543  0.50886  1.0000
  C   C119      1.0  0.93171  0.08635  0.00388  1.0000
  C   C120      1.0  0.06895  0.08509  0.00784  1.0000
  C   C121      1.0  0.93083  0.91554  0.50410  1.0000
  C   C122      1.0  0.04615  0.96850  0.50054  1.0000
  C   C123      1.0  0.95380  0.03300  0.99469  1.0000
  C   C124      1.0  0.04739  0.03106  0.99680  1.0000
  C   C125      1.0  0.95232  0.97013  0.49601  1.0000
  C   C126      1.0  0.06816  0.95637  0.50640  1.0000
  C   C127      1.0  0.93191  0.04539  0.00119  1.0000
  C   C128      1.0  0.06904  0.04414  0.00508  1.0000
  C   C129      1.0  0.93055  0.95652  0.50207  1.0000
  C   C130      1.0  0.66959  0.42995  0.65132  1.0000
  C   C131      1.0  0.33138  0.56739  0.15072  1.0000
  C   C132      1.0  0.33015  0.43634  0.65064  1.0000
  C   C133      1.0  0.66768  0.46092  0.62301  1.0000
  C   C134      1.0  0.33354  0.53797  0.12061  1.0000
  C   C135      1.0  0.33158  0.46721  0.62209  1.0000
  C   C136      1.0  0.68440  0.39910  0.64377  1.0000
  C   C137      1.0  0.31640  0.59826  0.14477  1.0000
  C   C138      1.0  0.31602  0.40422  0.64300  1.0000
  C   C139      1.0  0.69632  0.39833  0.60805  1.0000
  C   C140      1.0  0.30437  0.60038  0.10920  1.0000
  C   C141      1.0  0.30427  0.40222  0.60708  1.0000
  C   C142      1.0  0.67981  0.46032  0.58777  1.0000
  C   C143      1.0  0.32134  0.53994  0.08545  1.0000
  C   C144      1.0  0.31958  0.46537  0.58663  1.0000
  C   C145      1.0  0.69402  0.42866  0.57931  1.0000
  C   C146      1.0  0.30675  0.57143  0.07882  1.0000
  C   C147      1.0  0.30601  0.43253  0.57819  1.0000
  C   C148      1.0  0.65594  0.42882  0.68732  1.0000
  C   C149      1.0  0.34480  0.56709  0.18709  1.0000
  C   C150      1.0  0.65530  0.56454  0.18619  1.0000
  C   C151      1.0  0.34356  0.43646  0.68704  1.0000
  C   C152      1.0  0.70571  0.42705  0.54010  1.0000
  C   C153      1.0  0.29467  0.57397  0.03997  1.0000
  C   C154      1.0  0.70583  0.56973  0.03964  1.0000
  C   C155      1.0  0.29404  0.42993  0.53923  1.0000
  C   C156      1.0  0.72840  0.43140  0.53877  1.0000
  C   C157      1.0  0.27195  0.56949  0.03907  1.0000
  C   C158      1.0  0.72859  0.56666  0.03891  1.0000
  C   C159      1.0  0.27129  0.43372  0.53871  1.0000
  C   C160      1.0  0.73905  0.42939  0.50124  1.0000
  C   C161      1.0  0.26102  0.57099  0.00175  1.0000
  C   C162      1.0  0.73961  0.56925  0.00176  1.0000
  C   C163      1.0  0.26020  0.43134  0.50163  1.0000
  C   C164      1.0  0.72730  0.42388  0.46524  1.0000
  C   C165      1.0  0.27246  0.57683  0.96551  1.0000
  C   C166      1.0  0.72814  0.57401  0.96539  1.0000
  C   C167      1.0  0.27148  0.42573  0.46519  1.0000
  C   C168      1.0  0.70459  0.42015  0.46703  1.0000
  C   C169      1.0  0.29513  0.58154  0.96685  1.0000
  C   C170      1.0  0.70541  0.57687  0.96664  1.0000
  C   C171      1.0  0.29416  0.42229  0.46619  1.0000
  C   C172      1.0  0.69364  0.42125  0.50429  1.0000
  C   C173      1.0  0.30637  0.58033  0.00390  1.0000
  C   C174      1.0  0.69408  0.57515  0.00345  1.0000
  C   C175      1.0  0.30561  0.42396  0.50301  1.0000
  C   C176      1.0  0.76312  0.43306  0.49973  1.0000
  C   C177      1.0  0.23688  0.56759  0.00060  1.0000
  C   C178      1.0  0.76378  0.56758  0.00108  1.0000
  C   C179      1.0  0.23614  0.43485  0.50074  1.0000
  C   C180      1.0  0.77265  0.47109  0.49564  1.0000
  C   C181      1.0  0.22665  0.53023  0.99607  1.0000
  C   C182      1.0  0.77433  0.53054  0.99697  1.0000
  C   C183      1.0  0.22646  0.47245  0.49600  1.0000
  C   C184      1.0  0.79537  0.47441  0.49478  1.0000
  C   C185      1.0  0.20385  0.52830  0.99468  1.0000
  C   C186      1.0  0.79710  0.52945  0.99610  1.0000
  C   C187      1.0  0.20371  0.47498  0.49539  1.0000
  C   C188      1.0  0.80852  0.44010  0.49684  1.0000
  C   C189      1.0  0.19129  0.56326  0.99745  1.0000
  C   C190      1.0  0.80938  0.56494  0.99848  1.0000
  C   C191      1.0  0.19068  0.44053  0.49863  1.0000
  C   C192      1.0  0.79867  0.40238  0.50103  1.0000
  C   C193      1.0  0.20185  0.60037  0.00215  1.0000
  C   C194      1.0  0.79855  0.60157  0.00279  1.0000
  C   C195      1.0  0.20070  0.40303  0.50317  1.0000
  C   C196      1.0  0.77593  0.39864  0.50277  1.0000
  C   C197      1.0  0.22459  0.60277  0.00388  1.0000
  C   C198      1.0  0.77579  0.60322  0.00445  1.0000
  C   C199      1.0  0.22346  0.40007  0.50445  1.0000
  C   C200      1.0  0.80881  0.49073  0.99301  1.0000
  C   C201      1.0  0.81614  0.47144  0.02811  1.0000
  C   C202      1.0  0.82821  0.43658  0.02577  1.0000
  C   C203      1.0  0.83355  0.42007  0.98792  1.0000
  C   C204      1.0  0.82602  0.43907  0.95285  1.0000
  C   C205      1.0  0.81368  0.47371  0.95537  1.0000
  C   C206      1.0  0.84150  0.62418  0.48486  1.0000
  C   C207      1.0  0.15677  0.37946  0.98169  1.0000
  C   C208      1.0  0.84721  0.38484  0.98404  1.0000
  C   C209      1.0  0.15783  0.62406  0.48456  1.0000
  C   C210      1.0  0.30764  0.58629  0.92865  1.0000
  C   C211      1.0  0.69296  0.58093  0.92837  1.0000
  C   C212      1.0  0.31251  0.55249  0.90510  1.0000
  C   C213      1.0  0.68608  0.54650  0.90754  1.0000
  C   C214      1.0  0.32507  0.55562  0.87044  1.0000
  C   C215      1.0  0.67380  0.54937  0.87254  1.0000
  C   C216      1.0  0.33329  0.59289  0.85833  1.0000
  C   C217      1.0  0.66781  0.58697  0.85760  1.0000
  C   C218      1.0  0.32824  0.62681  0.88151  1.0000
  C   C219      1.0  0.67471  0.62143  0.87826  1.0000
  C   C220      1.0  0.31545  0.62359  0.91603  1.0000
  C   C221      1.0  0.68733  0.61842  0.91304  1.0000
  C   C222      1.0  0.65298  0.40519  0.32233  1.0000
  C   C223      1.0  0.34716  0.59673  0.82282  1.0000
  C   C224      1.0  0.65431  0.59035  0.82159  1.0000
  C   C225      1.0  0.34556  0.40992  0.32138  1.0000
  C   C226      1.0  0.81246  0.36621  0.50352  1.0000
  C   C227      1.0  0.18872  0.63745  0.00531  1.0000
  C   C228      1.0  0.81154  0.63900  0.00568  1.0000
  C   C229      1.0  0.18712  0.36652  0.50675  1.0000
  C   C230      1.0  0.81304  0.33843  0.47157  1.0000
  C   C231      1.0  0.18504  0.66152  0.97131  1.0000
  C   C232      1.0  0.81586  0.66169  0.97092  1.0000
  C   C233      1.0  0.18775  0.33638  0.47702  1.0000
  C   C234      1.0  0.82633  0.30517  0.47331  1.0000
  C   C235      1.0  0.17246  0.69569  0.97406  1.0000
  C   C236      1.0  0.82854  0.69594  0.97305  1.0000
  C   C237      1.0  0.17497  0.30235  0.48014  1.0000
  C   C238      1.0  0.83962  0.29876  0.50719  1.0000
  C   C239      1.0  0.16310  0.70677  0.01115  1.0000
  C   C240      1.0  0.83730  0.70861  0.01022  1.0000
  C   C241      1.0  0.16086  0.29755  0.51317  1.0000
  C   C242      1.0  0.83900  0.32634  0.53924  1.0000
  C   C243      1.0  0.16689  0.68294  0.04524  1.0000
  C   C244      1.0  0.83295  0.68607  0.04499  1.0000
  C   C245      1.0  0.16026  0.32753  0.54297  1.0000
  C   C246      1.0  0.82552  0.35949  0.53750  1.0000
  C   C247      1.0  0.17960  0.64882  0.04236  1.0000
  C   C248      1.0  0.82020  0.65171  0.04271  1.0000
  C   C249      1.0  0.17329  0.36135  0.53992  1.0000
  C   C250      1.0  0.85414  0.26463  0.50945  1.0000
  C   C251      1.0  0.14920  0.74161  0.01488  1.0000
  C   C252      1.0  0.85094  0.74419  0.01297  1.0000
  C   C253      1.0  0.14653  0.26314  0.51694  1.0000
  C   C254      1.0  0.74145  0.43837  0.57675  1.0000
  C   C255      1.0  0.25902  0.56280  0.07712  1.0000
  C   C256      1.0  0.74146  0.56009  0.07708  1.0000
  C   C257      1.0  0.25872  0.44088  0.57711  1.0000
  C   C258      1.0  0.66932  0.41618  0.50580  1.0000
  C   C259      1.0  0.33070  0.58553  0.00462  1.0000
  C   C260      1.0  0.66970  0.57929  0.00364  1.0000
  C   C261      1.0  0.32993  0.41914  0.50273  1.0000
  C   C262      1.0  0.73891  0.42220  0.42520  1.0000
  C   C263      1.0  0.26042  0.57778  0.92584  1.0000
  C   C264      1.0  0.73993  0.57704  0.92560  1.0000
  C   C265      1.0  0.25933  0.42366  0.42568  1.0000
  C   C266      1.0  0.76530  0.35833  0.50760  1.0000
  C   C267      1.0  0.23605  0.64241  0.00842  1.0000
  C   C268      1.0  0.76460  0.64274  0.01065  1.0000
  C   C269      1.0  0.23459  0.36043  0.50971  1.0000
  C   C270      1.0  0.75818  0.50718  0.49303  1.0000
  C   C271      1.0  0.23998  0.49268  0.99287  1.0000
  C   C272      1.0  0.76119  0.49265  0.99316  1.0000
  C   C273      1.0  0.24026  0.50944  0.49153  1.0000
  C   C274      1.0  0.83282  0.44389  0.49291  1.0000
  C   C275      1.0  0.16693  0.56126  0.99346  1.0000
  C   C276      1.0  0.83380  0.56383  0.99652  1.0000
  C   C277      1.0  0.16633  0.44397  0.49578  1.0000
  C   C278      1.0  0.08872  0.92853  0.96298  1.0000
  C   C279      1.0  0.08284  0.07951  0.46141  1.0000
  C   C280      1.0  0.41321  0.45908  0.83171  1.0000
  C   C281      1.0  0.58579  0.53876  0.33069  1.0000
  C   C282      1.0  0.43049  0.43189  0.83273  1.0000
  C   C283      1.0  0.56778  0.56428  0.33175  1.0000
  C   C284      1.0  0.41063  0.48496  0.86486  1.0000
  C   C285      1.0  0.58908  0.51324  0.36369  1.0000
  C   C286      1.0  0.44271  0.45793  0.89767  1.0000
  C   C287      1.0  0.55642  0.53762  0.39671  1.0000
  C   C288      1.0  0.60471  0.42954  0.20198  1.0000
  C   C289      1.0  0.39418  0.43464  0.20228  1.0000
  C   C290      1.0  0.08728  0.10200  0.49650  1.0000
  C   C291      1.0  0.08766  0.89744  0.99130  1.0000
  C   C292      1.0  0.10309  0.13531  0.49649  1.0000
  C   C293      1.0  0.10474  0.16192  0.52950  1.0000
  C   C294      1.0  0.11907  0.19389  0.52955  1.0000
  C   C295      1.0  0.13132  0.17449  0.46335  1.0000
  C   C296      1.0  0.11701  0.14238  0.46359  1.0000
  C   C297      1.0  0.08789  0.76826  0.51077  1.0000
  C   C298      1.0  0.91272  0.23386  0.00444  1.0000
  C   C299      1.0  0.89675  0.26644  0.00645  1.0000
  C   C300      1.0  0.89572  0.73639  0.50668  1.0000
  C   C301      1.0  0.89227  0.28624  0.04307  1.0000
  C   C302      1.0  0.88446  0.72745  0.54247  1.0000
  C   C303      1.0  0.87772  0.31772  0.04474  1.0000
  C   C304      1.0  0.87003  0.69556  0.54427  1.0000
  C   C305      1.0  0.87093  0.31070  0.97329  1.0000
  C   C306      1.0  0.87731  0.68030  0.47418  1.0000
  C   C307      1.0  0.88551  0.27924  0.97179  1.0000
  C   C308      1.0  0.89172  0.71229  0.47257  1.0000
  C   C309      1.0  0.55348  0.56384  0.36411  1.0000
  C   C310      1.0  0.44487  0.43125  0.86503  1.0000
  C   C311      1.0  0.57461  0.51254  0.39604  1.0000
  C   C312      1.0  0.42514  0.48445  0.89722  1.0000
  N   N1        1.0  0.34978  0.56783  0.79746  1.0000
  N   N2        1.0  0.65013  0.43432  0.29761  1.0000
  N   N3        1.0  0.34752  0.43839  0.29554  1.0000
  N   N4        1.0  0.65051  0.56011  0.79843  1.0000
  N   N5        1.0  0.85340  0.36426  0.01484  1.0000
  N   N6        1.0  0.14625  0.63652  0.51450  1.0000
  N   N7        1.0  0.85247  0.63833  0.51492  1.0000
  N   N8        1.0  0.14581  0.36569  0.01181  1.0000
  N   N9        1.0  0.36161  0.54458  0.19005  1.0000
  N   N10       1.0  0.63914  0.45127  0.69068  1.0000
  N   N11       1.0  0.36014  0.45968  0.69069  1.0000
  N   N12       1.0  0.63881  0.54110  0.18985  1.0000
  N   N13       1.0  0.85457  0.76663  0.98210  1.0000
  N   N14       1.0  0.14697  0.23349  0.49190  1.0000
  N   N15       1.0  0.85406  0.23660  0.48258  1.0000
  N   N16       1.0  0.14569  0.76533  0.98495  1.0000
  N   N17       1.0  0.96628  0.06721  0.99381  1.0000
  N   N18       1.0  0.03380  0.93411  0.49981  1.0000
  N   N19       1.0  0.96520  0.93656  0.49497  1.0000
  N   N20       1.0  0.03473  0.06482  0.99516  1.0000
  N   N21       1.0  0.46722  0.54602  0.50383  1.0000
  N   N22       1.0  0.53253  0.44820  0.00230  1.0000
  N   N23       1.0  0.46638  0.45156  0.00369  1.0000
  N   N24       1.0  0.53346  0.54466  0.50307  1.0000
  N   N25       1.0  0.50025  0.53751  0.44080  1.0000
  N   N26       1.0  0.49924  0.45612  0.94011  1.0000
  N   N27       1.0  0.50043  0.55452  0.56657  1.0000
  N   N28       1.0  0.49967  0.44340  0.06617  1.0000
  N   N29       1.0  0.00001  0.87515  0.50219  1.0000
  N   N30       1.0  0.00027  0.12627  0.99893  1.0000
  N   N31       1.0  0.99903  0.99570  0.49428  1.0000
  N   N32       1.0  0.00073  0.00569  0.99082  1.0000
  C   C313      1.0  0.08702  0.19320  0.97146  1.0000
  C   C314      1.0  0.08826  0.22583  0.99772  1.0000
  C  Sn1       1.0  0.07306  0.22559  0.02954  1.0000
  C  Sn2       1.0  0.05687  0.19602  0.03512  1.0000
  C   C315      1.0  0.05577  0.16348  0.00871  1.0000
  C   C316      1.0  0.07106  0.16402  0.97695  1.0000
  H   H225      1.0  0.09844  0.19055  0.94690  1.0000
  O  Te1       1.0  0.07452  0.25839  0.05549  1.0000
  O  Te2       1.0  0.04200  0.19898  0.06669  1.0000
  H   H226      1.0  0.07010  0.13874  0.95664  1.0000
  Mg  Mg1       1.0  0.05057  0.24919  0.09406  1.0000
  C   C317      1.0  0.36018  0.55536  0.71661  1.0000
  C   C318      1.0  0.36335  0.56489  0.75728  1.0000
  C  Sn3       1.0  0.38311  0.58073  0.77031  1.0000
  C  Sn4       1.0  0.39998  0.58712  0.74203  1.0000
  C   C319      1.0  0.39665  0.57752  0.70140  1.0000
  C   C320      1.0  0.37681  0.56167  0.68869  1.0000
  H   H227      1.0  0.34483  0.54312  0.70677  1.0000
  O  Te3       1.0  0.38601  0.59006  0.81105  1.0000
  O  Te4       1.0  0.41989  0.60293  0.75423  1.0000
  H   H228      1.0  0.37436  0.55432  0.65720  1.0000
  Mg  Mg2       1.0  0.41603  0.61090  0.81300  1.0000
  C   C321      1.0  0.44562  0.56954  0.35457  1.0000
  C   C322      1.0  0.44437  0.54801  0.39051  1.0000
  C  Sn5       1.0  0.42775  0.52027  0.39633  1.0000
  C  Sn6       1.0  0.41212  0.51403  0.36554  1.0000
  C   C323      1.0  0.41352  0.53570  0.32968  1.0000
  C   C324      1.0  0.43022  0.56339  0.32418  1.0000
  H   H229      1.0  0.45854  0.59094  0.35030  1.0000
  O  Te5       1.0  0.42674  0.49903  0.43243  1.0000
  O  Te6       1.0  0.39535  0.48648  0.37056  1.0000
  H   H230      1.0  0.43119  0.58003  0.29634  1.0000
  Mg  Mg3       1.0  0.40084  0.46479  0.42508  1.0000
  C   C325      1.0  0.87906  0.17874  0.44555  1.0000
  C   C326      1.0  0.86823  0.19771  0.47719  1.0000
  C  Sn7       1.0  0.87266  0.18745  0.51716  1.0000
  C  Sn8       1.0  0.88824  0.15763  0.52551  1.0000
  C   C327      1.0  0.89900  0.13884  0.49363  1.0000
  C   C328      1.0  0.89443  0.14933  0.45375  1.0000
  H   H231      1.0  0.87554  0.18687  0.41469  1.0000
  O  Te7       1.0  0.86169  0.20669  0.54842  1.0000
  O  Te8       1.0  0.89299  0.14680  0.56517  1.0000
  H   H232      1.0  0.90283  0.13465  0.42925  1.0000
  Mg  Mg4       1.0  0.87376  0.18157  0.59747  1.0000
  C   C329      1.0  0.56217  0.42135  0.83584  1.0000
  C   C330      1.0  0.57975  0.44658  0.82832  1.0000
  C  Sn9       1.0  0.58589  0.47530  0.85679  1.0000
  C  Sn10      1.0  0.57420  0.47875  0.89345  1.0000
  C   C331      1.0  0.55665  0.45335  0.90070  1.0000
  C   C332      1.0  0.55063  0.42473  0.87200  1.0000
  H   H233      1.0  0.55752  0.39919  0.81365  1.0000
  O  Te9       1.0  0.60349  0.50027  0.84878  1.0000
  O  Te10      1.0  0.58000  0.50718  0.92243  1.0000
  H   H234      1.0  0.53703  0.40519  0.87784  1.0000
  Mg  Mg5       1.0  0.60516  0.53435  0.89764  1.0000
  C   C333      1.0  0.81503  0.56387  0.44876  1.0000
  C   C334      1.0  0.82522  0.58539  0.47961  1.0000
  C  Sn11      1.0  0.82663  0.56950  0.51842  1.0000
  C  Sn12      1.0  0.81765  0.53135  0.52640  1.0000
  C   C335      1.0  0.80750  0.51004  0.49533  1.0000
  C   C336      1.0  0.80617  0.52623  0.45660  1.0000
  H   H235      1.0  0.81401  0.57638  0.41879  1.0000
  O  Te11      1.0  0.83687  0.59141  0.54889  1.0000
  O  Te12      1.0  0.81884  0.51476  0.56491  1.0000
  H   H236      1.0  0.79829  0.50955  0.43272  1.0000
  Mg  Mg6       1.0  0.83440  0.55614  0.59647  1.0000
  C   C337      1.0  0.93139  0.91014  0.02701  1.0000
  C   C338      1.0  0.91644  0.90477  0.99765  1.0000
  C  Sn13      1.0  0.91591  0.92579  0.96136  1.0000
  C  Sn14      1.0  0.93119  0.95669  0.95441  1.0000
  C   C339      1.0  0.94662  0.96577  0.98397  1.0000
  C   C340      1.0  0.94647  0.94061  0.02018  1.0000
  H   H237      1.0  0.93169  0.89372  0.05502  1.0000
  O  Te13      1.0  0.90034  0.91610  0.93235  1.0000
  O  Te14      1.0  0.93103  0.97816  0.91840  1.0000
  H   H238      1.0  0.95846  0.94781  0.04290  1.0000
  Mg  Mg7       1.0  0.90666  0.95390  0.88810  1.0000
  C   C341      1.0  0.11252  0.29272  0.96562  1.0000
  C   C342      1.0  0.10629  0.26828  0.99765  1.0000
  C  Sn15      1.0  0.11232  0.27339  0.03700  1.0000
  C  Sn16      1.0  0.12536  0.30758  0.04431  1.0000
  C   C343      1.0  0.13149  0.33186  0.01206  1.0000
  C   C344      1.0  0.12537  0.32645  0.97281  1.0000
  H   H239      1.0  0.10737  0.28550  0.93525  1.0000
  O  Te15      1.0  0.10596  0.24864  0.06865  1.0000
  O  Te16      1.0  0.13214  0.31734  0.08334  1.0000
  H   H240      1.0  0.13018  0.34540  0.94802  1.0000
  Mg  Mg8       1.0  0.11929  0.27439  0.11653  1.0000
  C   C345      1.0  0.91368  0.06471  0.45765  1.0000
  C   C346      1.0  0.91106  0.09609  0.48506  1.0000
  C  Sn17      1.0  0.92589  0.10166  0.51645  1.0000
  C  Sn18      1.0  0.94365  0.07529  0.52040  1.0000
  C   C347      1.0  0.94614  0.04400  0.49281  1.0000
  C   C348      1.0  0.93120  0.03869  0.46152  1.0000
  H   H241      1.0  0.90213  0.06062  0.43343  1.0000
  O  Te17      1.0  0.92303  0.13316  0.54357  1.0000
  O  Te18      1.0  0.95871  0.08018  0.55148  1.0000
  H   H242      1.0  0.93324  0.01441  0.44029  1.0000
  Mg  Mg9       1.0  0.94786  0.12753  0.58091  1.0000
  C   C349      1.0  0.11469  0.84211  0.94788  1.0000
  C   C350      1.0  0.10429  0.86003  0.98064  1.0000
  C  Sn19      1.0  0.10846  0.84405  0.01998  1.0000
  C  Sn20      1.0  0.12387  0.81351  0.02655  1.0000
  C   C351      1.0  0.13473  0.79973  0.99357  1.0000
  C   C352      1.0  0.12990  0.81199  0.95433  1.0000
  H   H243      1.0  0.11096  0.85160  0.91751  1.0000
  O  Te19      1.0  0.09792  0.86226  0.05237  1.0000
  O  Te20      1.0  0.12888  0.80092  0.06556  1.0000
  H   H244      1.0  0.13796  0.79813  0.92897  1.0000
  Mg  Mg10      1.0  0.11022  0.83480  0.09991  1.0000
  C   C353      1.0  0.42129  0.47426  0.11630  1.0000
  C   C354      1.0  0.43945  0.45030  0.11021  1.0000
  C  Sn21      1.0  0.44281  0.41674  0.13421  1.0000
  C  Sn22      1.0  0.42768  0.40704  0.16483  1.0000
  C   C355      1.0  0.40955  0.43118  0.17066  1.0000
  C   C356      1.0  0.40635  0.46471  0.14649  1.0000
  H   H245      1.0  0.41880  0.50019  0.09759  1.0000
  O  Te21      1.0  0.46105  0.39314  0.12773  1.0000
  O  Te22      1.0  0.43064  0.37366  0.18923  1.0000
  H   H246      1.0  0.39227  0.48323  0.15120  1.0000
  Mg  Mg11      1.0  0.45800  0.35073  0.16877  1.0000
  C   C357      1.0  0.63502  0.45444  0.77610  1.0000
  C   C358      1.0  0.62951  0.44936  0.73549  1.0000
  C  Sn23      1.0  0.60780  0.44716  0.72388  1.0000
  C  Sn24      1.0  0.59133  0.45011  0.75353  1.0000
  C   C359      1.0  0.59701  0.45522  0.79407  1.0000
  C   C360      1.0  0.61879  0.45738  0.80536  1.0000
  H   H247      1.0  0.65187  0.45613  0.78483  1.0000
  O  Te23      1.0  0.60258  0.44206  0.68318  1.0000
  O  Te24      1.0  0.56950  0.44802  0.74276  1.0000
  H   H248      1.0  0.62305  0.46134  0.83680  1.0000
  Mg  Mg12      1.0  0.57053  0.44091  0.68346  1.0000
  C   C361      1.0  0.63942  0.54352  0.71860  1.0000
  C   C362      1.0  0.63774  0.56014  0.75720  1.0000
  C  Sn25      1.0  0.61855  0.57844  0.76941  1.0000
  C  Sn26      1.0  0.60074  0.58007  0.74243  1.0000
  C   C363      1.0  0.60258  0.56332  0.70390  1.0000
  C   C364      1.0  0.62186  0.54509  0.69198  1.0000
  H   H249      1.0  0.65434  0.52940  0.70939  1.0000
  O  Te25      1.0  0.61714  0.59492  0.80807  1.0000
  O  Te26      1.0  0.58136  0.59816  0.75387  1.0000
  H   H250      1.0  0.62315  0.53220  0.66211  1.0000
  Mg  Mg13      1.0  0.58734  0.61637  0.80969  1.0000
  C   C365      1.0  0.17918  0.46443  0.03021  1.0000
  C   C366      1.0  0.19145  0.48392  0.00084  1.0000
  C  Sn27      1.0  0.19247  0.47332  0.96130  1.0000
  C  Sn28      1.0  0.18044  0.43861  0.95106  1.0000
  C   C367      1.0  0.16820  0.41935  0.98065  1.0000
  C   C368      1.0  0.16729  0.43021  0.02013  1.0000
  H   H251      1.0  0.17887  0.47590  0.06076  1.0000
  O  Te27      1.0  0.20483  0.49315  0.93233  1.0000
  O  Te28      1.0  0.18064  0.42344  0.91176  1.0000
  H   H252      1.0  0.15778  0.41513  0.04286  1.0000
  Mg  Mg14      1.0  0.19994  0.46095  0.88290  1.0000
  C   C369      1.0  0.58615  0.52391  0.63455  1.0000
  C   C370      1.0  0.59026  0.55497  0.66175  1.0000
  C  Sn29      1.0  0.57680  0.58833  0.66278  1.0000
  C  Sn30      1.0  0.55890  0.59054  0.63605  1.0000
  C   C371      1.0  0.55492  0.55929  0.60897  1.0000
  C   C372      1.0  0.56849  0.52606  0.60819  1.0000
  H   H253      1.0  0.59665  0.49819  0.63396  1.0000
  O  Te29      1.0  0.58115  0.61910  0.69013  1.0000
  O  Te30      1.0  0.54519  0.62352  0.63645  1.0000
  H   H254      1.0  0.56530  0.50201  0.58714  1.0000
  Mg  Mg15      1.0  0.55780  0.65788  0.67920  1.0000
  C   C373      1.0  0.11380  0.71048  0.55365  1.0000
  C   C374      1.0  0.10625  0.73316  0.52132  1.0000
  C  Sn31      1.0  0.11139  0.72240  0.48172  1.0000
  C  Sn32      1.0  0.12432  0.68826  0.47444  1.0000
  C   C375      1.0  0.13178  0.66575  0.50699  1.0000
  C   C376      1.0  0.12654  0.67680  0.54650  1.0000
  H   H255      1.0  0.10974  0.71901  0.58422  1.0000
  O  Te31      1.0  0.10372  0.74540  0.44977  1.0000
  O  Te32      1.0  0.12969  0.67682  0.43516  1.0000
  H   H256      1.0  0.13238  0.65922  0.57152  1.0000
  Mg  Mg16      1.0  0.11539  0.71774  0.40162  1.0000
  C   C377      1.0  0.42229  0.52863  0.61795  1.0000
  C   C378      1.0  0.43871  0.55525  0.60712  1.0000
  C  Sn33      1.0  0.44215  0.59006  0.62955  1.0000
  C  Sn34      1.0  0.42887  0.59828  0.66345  1.0000
  C   C379      1.0  0.41249  0.57144  0.67406  1.0000
  C   C380      1.0  0.40919  0.53671  0.65140  1.0000
  H   H257      1.0  0.41974  0.50174  0.60043  1.0000
  O  Te33      1.0  0.45862  0.61634  0.61829  1.0000
  O  Te34      1.0  0.43195  0.63284  0.68641  1.0000
  H   H258      1.0  0.39648  0.51609  0.65981  1.0000
  Mg  Mg17      1.0  0.45650  0.65948  0.65905  1.0000
  C   C381      1.0  0.67495  0.37000  0.38902  1.0000
  C   C382      1.0  0.66664  0.40013  0.36453  1.0000
  C  Sn35      1.0  0.67219  0.43994  0.37178  1.0000
  C  Sn36      1.0  0.68631  0.44968  0.40415  1.0000
  C   C383      1.0  0.69455  0.41932  0.42845  1.0000
  C   C384      1.0  0.68889  0.37958  0.42094  1.0000
  H   H259      1.0  0.67058  0.33925  0.38320  1.0000
  O  Te35      1.0  0.66374  0.46967  0.34703  1.0000
  O  Te36      1.0  0.69213  0.48922  0.41205  1.0000
  H   H260      1.0  0.69534  0.35626  0.43988  1.0000
  Mg  Mg18      1.0  0.67641  0.51916  0.36989  1.0000
  C   C385      1.0  0.18960  0.54339  0.44921  1.0000
  C   C386      1.0  0.19392  0.52017  0.48317  1.0000
  C  Sn37      1.0  0.18521  0.53054  0.52064  1.0000
  C  Sn38      1.0  0.17193  0.56479  0.52407  1.0000
  C   C387      1.0  0.16770  0.58781  0.48991  1.0000
  C   C388      1.0  0.17650  0.57717  0.45256  1.0000
  H   H261      1.0  0.19640  0.53515  0.42031  1.0000
  O  Te37      1.0  0.18969  0.50702  0.55427  1.0000
  O  Te38      1.0  0.16301  0.57582  0.56115  1.0000
  H   H262      1.0  0.17314  0.59514  0.42627  1.0000
  Mg  Mg19      1.0  0.17381  0.53427  0.59826  1.0000
  C   C389      1.0  0.32636  0.37452  0.39071  1.0000
  C   C390      1.0  0.33032  0.40357  0.36149  1.0000
  C  Sn39      1.0  0.32259  0.44231  0.36679  1.0000
  C  Sn40      1.0  0.31068  0.45207  0.40203  1.0000
  C   C391      1.0  0.30682  0.42281  0.43109  1.0000
  C   C392      1.0  0.31463  0.38412  0.42547  1.0000
  H   H263      1.0  0.33242  0.34459  0.38638  1.0000
  O  Te39      1.0  0.32668  0.47097  0.33730  1.0000
  O  Te40      1.0  0.30277  0.49057  0.40809  1.0000
  H   H264      1.0  0.31157  0.36165  0.44811  1.0000
  Mg  Mg20      1.0  0.31253  0.51927  0.35926  1.0000
  C   C393      1.0  0.68808  0.60057  0.13759  1.0000
  C   C394      1.0  0.67200  0.57333  0.14868  1.0000
  C  Sn41      1.0  0.66741  0.54042  0.12412  1.0000
  C  Sn42      1.0  0.67916  0.53474  0.08781  1.0000
  C   C395      1.0  0.69523  0.56214  0.07700  1.0000
  C   C396      1.0  0.69968  0.59498  0.10179  1.0000
  H   H265      1.0  0.69153  0.62596  0.15678  1.0000
  O  Te41      1.0  0.65129  0.51351  0.13564  1.0000
  O  Te42      1.0  0.67491  0.50210  0.06271  1.0000
  H   H266      1.0  0.71214  0.61604  0.09321  1.0000
  Mg  Mg21      1.0  0.65141  0.47366  0.09138  1.0000
  C   C397      1.0  0.91493  0.80437  0.46705  1.0000
  C   C398      1.0  0.91249  0.77405  0.49550  1.0000
  C  Sn43      1.0  0.92562  0.77329  0.52983  1.0000
  C  Sn44      1.0  0.94147  0.80347  0.53569  1.0000
  C   C399      1.0  0.94378  0.83369  0.50706  1.0000
  C   C400      1.0  0.93055  0.83416  0.47282  1.0000
  H   H267      1.0  0.90469  0.80475  0.44057  1.0000
  O  Te43      1.0  0.92297  0.74278  0.55795  1.0000
  O  Te44      1.0  0.95481  0.80343  0.56973  1.0000
  H   H268      1.0  0.93244  0.85765  0.45080  1.0000
  Mg  Mg22      1.0  0.94503  0.75558  0.59948  1.0000
  C   C401      1.0  0.57775  0.47037  0.11643  1.0000
  C   C402      1.0  0.56164  0.44295  0.10571  1.0000
  C  Sn45      1.0  0.55831  0.40875  0.12884  1.0000
  C  Sn46      1.0  0.57138  0.40195  0.16334  1.0000
  C   C403      1.0  0.58745  0.42958  0.17382  1.0000
  C   C404      1.0  0.59064  0.46370  0.15045  1.0000
  H   H269      1.0  0.58021  0.49678  0.09836  1.0000
  O  Te45      1.0  0.54215  0.38165  0.11770  1.0000
  O  Te46      1.0  0.56840  0.36802  0.18700  1.0000
  H   H270      1.0  0.60311  0.48494  0.15878  1.0000
  Mg  Mg23      1.0  0.54430  0.33984  0.15952  1.0000
  C   C405      1.0  0.90134  0.81879  0.01189  1.0000
  C   C406      1.0  0.90101  0.85842  0.99034  1.0000
  C  Sn47      1.0  0.88306  0.86706  0.96631  1.0000
  C  Sn48      1.0  0.86566  0.83941  0.96387  1.0000
  C   C407      1.0  0.86667  0.80381  0.98557  1.0000
  C   C408      1.0  0.88419  0.79151  0.00952  1.0000
  H   H271      1.0  0.91529  0.81234  0.03044  1.0000
  O  Te47      1.0  0.88246  0.90284  0.94496  1.0000
  O  Te48      1.0  0.84753  0.84730  0.94008  1.0000
  H   H272      1.0  0.88484  0.76390  0.02622  1.0000
  Mg  Mg24      1.0  0.85426  0.90011  0.91664  1.0000
