data_image0
_chemical_formula_structural       H128C168N32C2Sn2C2HTe2HMgC2Sn2C2HTe2HMgC2Sn2C2HTe2HMgC2Sn2C2HTe2HMgC2Sn2C2HTe2HMgC2Sn2C2HTe2HMgC2Sn2C2HTe2HMgC2Sn2C2HTe2HMgC2Sn2C2HTe2HMgC2Sn2C2HTe2HMgC2Sn2C2HTe2HMgC2Sn2C2HTe2HMgC2Sn2C2HTe2HMgC2Sn2C2HTe2HMgC2Sn2C2HTe2HMgC2Sn2C2HTe2HMgC2Sn2C2HTe2HMgC2Sn2C2HTe2HMgC2Sn2C2HTe2HMgC2Sn2C2HTe2HMgC2Sn2C2HTe2HMgC2Sn2C2HTe2HMgC2Sn2C2HTe2HMgC2Sn2C2HTe2HMgC2Sn2C2HTe2HMgC2Sn2C2HTe2HMgC2Sn2C2HTe2HMgC2Sn2C2HTe2HMgC2Sn2C2HTe2HMgC2Sn2C2HTe2HMgC2Sn2C2HTe2HMgC2Sn2C2HTe2HMgC2Sn2C2HTe2HMgC2Sn2C2HTe2HMgC2Sn2C2HTe2HMgC2Sn2C2HTe2HMgC2Sn2C2HTe2HMgC2Sn2C2HTe2HMgC2Sn2C2HTe2HMgC2Sn2C2HTe2HMgC2Sn2C2HTe2HMgC2Sn2C2HTe2HMgC2Sn2C2HTe2HMgC2Sn2C2HTe2HMgC2Sn2C2HTe2HMgC2Sn2C2HTe2HMgC2Sn2C2HTe2HMgC2Sn2C2HTe2HMg
_chemical_formula_sum              "H224 C360 N32 Sn96 Te96 Mg48"
_cell_length_a       61.7979
_cell_length_b       33.5453
_cell_length_c       33.1432
_cell_angle_alpha    90.2285
_cell_angle_beta     90.0554
_cell_angle_gamma    90.2278

_symmetry_space_group_name_H-M    'P1'
_space_group_IT_number       1

loop_
  _space_group_symop_operation_xyz
  'x, y, z'

loop_
  _atom_site_type_symbol
  _atom_site_label
  _atom_site_symmetry_multiplicity
  _atom_site_fract_x
  _atom_site_fract_y
  _atom_site_fract_z
  _atom_site_occupancy
  H   H1        1.0  0.73018  0.40345  0.40340  1.0000
  H   H2        1.0  0.26961  0.59375  0.90266  1.0000
  H   H3        1.0  0.73111  0.56150  0.90144  1.0000
  H   H4        1.0  0.26776  0.40494  0.40358  1.0000
  H   H5        1.0  0.75540  0.41087  0.42881  1.0000
  H   H6        1.0  0.24453  0.59182  0.92936  1.0000
  H   H7        1.0  0.74151  0.60835  0.91617  1.0000
  H   H8        1.0  0.24289  0.41203  0.43008  1.0000
  H   H9        1.0  0.74030  0.45208  0.41177  1.0000
  H   H10       1.0  0.25745  0.54735  0.91444  1.0000
  H   H11       1.0  0.75631  0.56485  0.92772  1.0000
  H   H12       1.0  0.25772  0.45345  0.41221  1.0000
  H   H13       1.0  0.75508  0.45862  0.57099  1.0000
  H   H14       1.0  0.24685  0.53927  0.07261  1.0000
  H   H15       1.0  0.75462  0.53881  0.07183  1.0000
  H   H16       1.0  0.24536  0.46171  0.57190  1.0000
  H   H17       1.0  0.74851  0.41042  0.58791  1.0000
  H   H18       1.0  0.25005  0.58983  0.08571  1.0000
  H   H19       1.0  0.74918  0.58791  0.08753  1.0000
  H   H20       1.0  0.25138  0.41307  0.58829  1.0000
  H   H21       1.0  0.73149  0.45079  0.60102  1.0000
  H   H22       1.0  0.26939  0.55469  0.10257  1.0000
  H   H23       1.0  0.73130  0.54899  0.10165  1.0000
  H   H24       1.0  0.26911  0.45277  0.60113  1.0000
  H   H25       1.0  0.66340  0.39878  0.48001  1.0000
  H   H26       1.0  0.33609  0.60634  0.98128  1.0000
  H   H27       1.0  0.66165  0.55052  0.99781  1.0000
  H   H28       1.0  0.33447  0.39013  0.48987  1.0000
  H   H29       1.0  0.66105  0.44515  0.50478  1.0000
  H   H30       1.0  0.33894  0.55711  0.99859  1.0000
  H   H31       1.0  0.66376  0.59027  0.03274  1.0000
  H   H32       1.0  0.33765  0.44189  0.48371  1.0000
  H   H33       1.0  0.66421  0.40144  0.53368  1.0000
  H   H34       1.0  0.33638  0.59640  0.03398  1.0000
  H   H35       1.0  0.66426  0.59962  0.97992  1.0000
  H   H36       1.0  0.33685  0.42119  0.53304  1.0000
  H   H37       1.0  0.76746  0.53480  0.48952  1.0000
  H   H38       1.0  0.23130  0.46690  0.00523  1.0000
  H   H39       1.0  0.77054  0.46655  0.00250  1.0000
  H   H40       1.0  0.23246  0.53560  0.50502  1.0000
  H   H41       1.0  0.74806  0.51002  0.52016  1.0000
  H   H42       1.0  0.25550  0.49602  0.00862  1.0000
  H   H43       1.0  0.74633  0.49423  0.01116  1.0000
  H   H44       1.0  0.25623  0.50547  0.50532  1.0000
  H   H45       1.0  0.74694  0.50430  0.46744  1.0000
  H   H46       1.0  0.24366  0.48558  0.96115  1.0000
  H   H47       1.0  0.75614  0.48765  0.96165  1.0000
  H   H48       1.0  0.24295  0.51631  0.45946  1.0000
  H   H49       1.0  0.83714  0.46773  0.47180  1.0000
  H   H50       1.0  0.16025  0.53398  0.00666  1.0000
  H   H51       1.0  0.83948  0.53887  0.97795  1.0000
  H   H52       1.0  0.16170  0.46941  0.47704  1.0000
  H   H53       1.0  0.83998  0.41593  0.48231  1.0000
  H   H54       1.0  0.16219  0.56123  0.96142  1.0000
  H   H55       1.0  0.84035  0.59167  0.98425  1.0000
  H   H56       1.0  0.15910  0.41683  0.48304  1.0000
  H   H57       1.0  0.84056  0.45144  0.52188  1.0000
  H   H58       1.0  0.15910  0.58698  0.00761  1.0000
  H   H59       1.0  0.84088  0.56003  0.02674  1.0000
  H   H60       1.0  0.15890  0.44877  0.52556  1.0000
  H   H61       1.0  0.75012  0.36078  0.52451  1.0000
  H   H62       1.0  0.24911  0.64072  0.03084  1.0000
  H   H63       1.0  0.74746  0.64102  0.00236  1.0000
  H   H64       1.0  0.24810  0.36302  0.53109  1.0000
  H   H65       1.0  0.77600  0.33727  0.52292  1.0000
  H   H66       1.0  0.22491  0.66618  0.01723  1.0000
  H   H67       1.0  0.76550  0.65191  0.04256  1.0000
  H   H68       1.0  0.22341  0.33739  0.52035  1.0000
  H   H69       1.0  0.76115  0.34519  0.47808  1.0000
  H   H70       1.0  0.24377  0.65123  0.97987  1.0000
  H   H71       1.0  0.77234  0.66656  0.99318  1.0000
  H   H72       1.0  0.24161  0.35000  0.48106  1.0000
  H   H73       1.0  0.47797  0.51307  0.35377  1.0000
  H   H74       1.0  0.52086  0.47973  0.85252  1.0000
  H   H75       1.0  0.47727  0.48210  0.85358  1.0000
  H   H76       1.0  0.52151  0.51216  0.35330  1.0000
  H   H77       1.0  0.58273  0.55552  0.46099  1.0000
  H   H78       1.0  0.41691  0.44033  0.96232  1.0000
  H   H79       1.0  0.58107  0.43215  0.95926  1.0000
  H   H80       1.0  0.41810  0.55863  0.46166  1.0000
  H   H81       1.0  0.58282  0.56391  0.54184  1.0000
  H   H82       1.0  0.41720  0.43307  0.04330  1.0000
  H   H83       1.0  0.58154  0.42584  0.04033  1.0000
  H   H84       1.0  0.41831  0.56810  0.54241  1.0000
  H   H85       1.0  0.47894  0.55411  0.65757  1.0000
  H   H86       1.0  0.52217  0.44658  0.15629  1.0000
  H   H87       1.0  0.47861  0.44909  0.15729  1.0000
  H   H88       1.0  0.52248  0.55145  0.65709  1.0000
  H   H89       1.0  0.66025  0.40691  0.71059  1.0000
  H   H90       1.0  0.34025  0.58803  0.21127  1.0000
  H   H91       1.0  0.65943  0.58674  0.20954  1.0000
  H   H92       1.0  0.33928  0.41472  0.71056  1.0000
  H   H93       1.0  0.08170  0.97684  0.50860  1.0000
  H   H94       1.0  0.91838  0.02499  0.00394  1.0000
  H   H95       1.0  0.08268  0.02439  0.00904  1.0000
  H   H96       1.0  0.91673  0.97602  0.50514  1.0000
  H   H97       1.0  0.08250  0.89659  0.51366  1.0000
  H   H98       1.0  0.08249  0.10462  0.01446  1.0000
  H   H99       1.0  0.91723  0.89572  0.50900  1.0000
  H   H100      1.0  0.98279  0.06833  0.99219  1.0000
  H   H101      1.0  0.01729  0.93244  0.49811  1.0000
  H   H102      1.0  0.98172  0.93771  0.49372  1.0000
  H   H103      1.0  0.01825  0.06411  0.99238  1.0000
  H   H104      1.0  0.97964  0.21812  0.98584  1.0000
  H   H105      1.0  0.02107  0.78301  0.49392  1.0000
  H   H106      1.0  0.97752  0.78411  0.49117  1.0000
  H   H107      1.0  0.02315  0.21693  0.98819  1.0000
  H   H108      1.0  0.50049  0.54409  0.47091  1.0000
  H   H109      1.0  0.50023  0.55244  0.53582  1.0000
  H   H110      1.0  0.49936  0.44971  0.97021  1.0000
  H   H111      1.0  0.49941  0.44457  0.03539  1.0000
  H   H112      1.0  0.35520  0.62578  0.81872  1.0000
  H   H113      1.0  0.64766  0.62002  0.81501  1.0000
  H   H114      1.0  0.64529  0.37593  0.31737  1.0000
  H   H115      1.0  0.35427  0.38159  0.31761  1.0000
  H   H116      1.0  0.15890  0.63998  0.45564  1.0000
  H   H117      1.0  0.13510  0.26476  0.54234  1.0000
  H   H118      1.0  0.86547  0.26456  0.53510  1.0000
  H   H119      1.0  0.84114  0.63890  0.45523  1.0000
  H   H120      1.0  0.97866  0.08696  0.47627  1.0000
  H   H121      1.0  0.02222  0.08551  0.47951  1.0000
  H   H122      1.0  0.91792  0.10533  0.00950  1.0000
  H   H123      1.0  0.97792  0.91590  0.97299  1.0000
  H   H124      1.0  0.02156  0.91467  0.97269  1.0000
  H   H125      1.0  0.14168  0.74574  0.04468  1.0000
  H   H126      1.0  0.15713  0.36470  0.95197  1.0000
  H   H127      1.0  0.85229  0.37762  0.95305  1.0000
  H   H128      1.0  0.85784  0.75090  0.04290  1.0000
  C   C1        1.0  0.45398  0.55403  0.53613  1.0000
  C   C2        1.0  0.54595  0.44096  0.03452  1.0000
  C   C3        1.0  0.45311  0.44532  0.03633  1.0000
  C   C4        1.0  0.54687  0.55160  0.53545  1.0000
  C   C5        1.0  0.46055  0.55687  0.57696  1.0000
  C   C6        1.0  0.53967  0.44023  0.07555  1.0000
  C   C7        1.0  0.45979  0.44417  0.07717  1.0000
  C   C8        1.0  0.54041  0.55391  0.57632  1.0000
  C   C9        1.0  0.56923  0.55697  0.52237  1.0000
  C   C10       1.0  0.43069  0.43968  0.02359  1.0000
  C   C11       1.0  0.56803  0.43342  0.02104  1.0000
  C   C12       1.0  0.43171  0.56022  0.52297  1.0000
  C   C13       1.0  0.98289  0.15160  0.99600  1.0000
  C   C14       1.0  0.01746  0.84978  0.50144  1.0000
  C   C15       1.0  0.98212  0.85075  0.49937  1.0000
  C   C16       1.0  0.01823  0.15056  0.99739  1.0000
  C   C17       1.0  0.99005  0.19271  0.99068  1.0000
  C   C18       1.0  0.01047  0.80848  0.49672  1.0000
  C   C19       1.0  0.98845  0.80906  0.49539  1.0000
  C   C20       1.0  0.01207  0.19210  0.99171  1.0000
  C   C21       1.0  0.04001  0.13824  0.00078  1.0000
  C   C22       1.0  0.96023  0.86291  0.50017  1.0000
  C   C23       1.0  0.03948  0.86128  0.50424  1.0000
  C   C24       1.0  0.96083  0.14024  0.99810  1.0000
  C   C25       1.0  0.45381  0.54615  0.47064  1.0000
  C   C26       1.0  0.54568  0.44656  0.96885  1.0000
  C   C27       1.0  0.45283  0.45126  0.97070  1.0000
  C   C28       1.0  0.54683  0.54449  0.46990  1.0000
  C   C29       1.0  0.46026  0.53870  0.43043  1.0000
  C   C30       1.0  0.53905  0.45368  0.92870  1.0000
  C   C31       1.0  0.45925  0.45774  0.93035  1.0000
  C   C32       1.0  0.54015  0.53729  0.42975  1.0000
  C   C33       1.0  0.56918  0.55279  0.48147  1.0000
  C   C34       1.0  0.43054  0.44330  0.98267  1.0000
  C   C35       1.0  0.56782  0.43665  0.98008  1.0000
  C   C36       1.0  0.43164  0.55552  0.48215  1.0000
  C   C37       1.0  0.98282  0.98160  0.98657  1.0000
  C   C38       1.0  0.01704  0.01974  0.49154  1.0000
  C   C39       1.0  0.98173  0.02095  0.48974  1.0000
  C   C40       1.0  0.01810  0.98050  0.98703  1.0000
  C   C41       1.0  0.98901  0.94041  0.97847  1.0000
  C   C42       1.0  0.01103  0.06100  0.48380  1.0000
  C   C43       1.0  0.98901  0.06173  0.48232  1.0000
  C   C44       1.0  0.01103  0.93977  0.97847  1.0000
  C   C45       1.0  0.04005  0.99165  0.99145  1.0000
  C   C46       1.0  0.95966  0.00977  0.49233  1.0000
  C   C47       1.0  0.03875  0.00773  0.49596  1.0000
  C   C48       1.0  0.96106  0.99367  0.99000  1.0000
  C   C49       1.0  0.48214  0.55542  0.59051  1.0000
  C   C50       1.0  0.51821  0.44296  0.08951  1.0000
  C   C51       1.0  0.48148  0.44493  0.09033  1.0000
  C   C52       1.0  0.51887  0.55367  0.59013  1.0000
  C   C53       1.0  0.48950  0.55434  0.63155  1.0000
  C   C54       1.0  0.51129  0.44541  0.13072  1.0000
  C   C55       1.0  0.48904  0.44664  0.13122  1.0000
  C   C56       1.0  0.51176  0.55313  0.63132  1.0000
  C   C57       1.0  0.48177  0.53230  0.41788  1.0000
  C   C58       1.0  0.51752  0.46069  0.91663  1.0000
  C   C59       1.0  0.48084  0.46264  0.91748  1.0000
  C   C60       1.0  0.51848  0.53159  0.41751  1.0000
  C   C61       1.0  0.48878  0.52056  0.37839  1.0000
  C   C62       1.0  0.51024  0.47262  0.87744  1.0000
  C   C63       1.0  0.48799  0.47381  0.87796  1.0000
  C   C64       1.0  0.51103  0.52011  0.37816  1.0000
  C   C65       1.0  0.04679  0.90107  0.50430  1.0000
  C   C66       1.0  0.95347  0.10047  0.99871  1.0000
  C   C67       1.0  0.04722  0.09851  0.00130  1.0000
  C   C68       1.0  0.95280  0.90254  0.49961  1.0000
  C   C69       1.0  0.06856  0.91543  0.50886  1.0000
  C   C70       1.0  0.93171  0.08635  0.00388  1.0000
  C   C71       1.0  0.06895  0.08509  0.00784  1.0000
  C   C72       1.0  0.93083  0.91554  0.50410  1.0000
  C   C73       1.0  0.04615  0.96850  0.50054  1.0000
  C   C74       1.0  0.95380  0.03300  0.99469  1.0000
  C   C75       1.0  0.04739  0.03106  0.99680  1.0000
  C   C76       1.0  0.95232  0.97013  0.49601  1.0000
  C   C77       1.0  0.06816  0.95637  0.50640  1.0000
  C   C78       1.0  0.93191  0.04539  0.00119  1.0000
  C   C79       1.0  0.06904  0.04414  0.00508  1.0000
  C   C80       1.0  0.93055  0.95652  0.50207  1.0000
  C   C81       1.0  0.65594  0.42882  0.68732  1.0000
  C   C82       1.0  0.34480  0.56709  0.18709  1.0000
  C   C83       1.0  0.65530  0.56454  0.18619  1.0000
  C   C84       1.0  0.34356  0.43646  0.68704  1.0000
  C   C85       1.0  0.70571  0.42705  0.54010  1.0000
  C   C86       1.0  0.29467  0.57397  0.03997  1.0000
  C   C87       1.0  0.70583  0.56973  0.03964  1.0000
  C   C88       1.0  0.29404  0.42993  0.53923  1.0000
  C   C89       1.0  0.72840  0.43140  0.53877  1.0000
  C   C90       1.0  0.27195  0.56949  0.03907  1.0000
  C   C91       1.0  0.72859  0.56666  0.03891  1.0000
  C   C92       1.0  0.27129  0.43372  0.53871  1.0000
  C   C93       1.0  0.73905  0.42939  0.50124  1.0000
  C   C94       1.0  0.26102  0.57099  0.00175  1.0000
  C   C95       1.0  0.73961  0.56925  0.00176  1.0000
  C   C96       1.0  0.26020  0.43134  0.50163  1.0000
  C   C97       1.0  0.72730  0.42388  0.46524  1.0000
  C   C98       1.0  0.27246  0.57683  0.96551  1.0000
  C   C99       1.0  0.72814  0.57401  0.96539  1.0000
  C   C100      1.0  0.27148  0.42573  0.46519  1.0000
  C   C101      1.0  0.70459  0.42015  0.46703  1.0000
  C   C102      1.0  0.29513  0.58154  0.96685  1.0000
  C   C103      1.0  0.70541  0.57687  0.96664  1.0000
  C   C104      1.0  0.29416  0.42229  0.46619  1.0000
  C   C105      1.0  0.69364  0.42125  0.50429  1.0000
  C   C106      1.0  0.30637  0.58033  0.00390  1.0000
  C   C107      1.0  0.69408  0.57515  0.00345  1.0000
  C   C108      1.0  0.30561  0.42396  0.50301  1.0000
  C   C109      1.0  0.76312  0.43306  0.49973  1.0000
  C   C110      1.0  0.23688  0.56759  0.00060  1.0000
  C   C111      1.0  0.76378  0.56758  0.00108  1.0000
  C   C112      1.0  0.23614  0.43485  0.50074  1.0000
  C   C113      1.0  0.77265  0.47109  0.49564  1.0000
  C   C114      1.0  0.22665  0.53023  0.99607  1.0000
  C   C115      1.0  0.77433  0.53054  0.99697  1.0000
  C   C116      1.0  0.22646  0.47245  0.49600  1.0000
  C   C117      1.0  0.79537  0.47441  0.49478  1.0000
  C   C118      1.0  0.20385  0.52830  0.99468  1.0000
  C   C119      1.0  0.79710  0.52945  0.99610  1.0000
  C   C120      1.0  0.20371  0.47498  0.49539  1.0000
  C   C121      1.0  0.80852  0.44010  0.49684  1.0000
  C   C122      1.0  0.19129  0.56326  0.99745  1.0000
  C   C123      1.0  0.80938  0.56494  0.99848  1.0000
  C   C124      1.0  0.19068  0.44053  0.49863  1.0000
  C   C125      1.0  0.79867  0.40238  0.50103  1.0000
  C   C126      1.0  0.20185  0.60037  0.00215  1.0000
  C   C127      1.0  0.79855  0.60157  0.00279  1.0000
  C   C128      1.0  0.20070  0.40303  0.50317  1.0000
  C   C129      1.0  0.77593  0.39864  0.50277  1.0000
  C   C130      1.0  0.22459  0.60277  0.00388  1.0000
  C   C131      1.0  0.77579  0.60322  0.00445  1.0000
  C   C132      1.0  0.22346  0.40007  0.50445  1.0000
  C   C133      1.0  0.84150  0.62418  0.48486  1.0000
  C   C134      1.0  0.15677  0.37946  0.98169  1.0000
  C   C135      1.0  0.84721  0.38484  0.98404  1.0000
  C   C136      1.0  0.15783  0.62406  0.48456  1.0000
  C   C137      1.0  0.65298  0.40519  0.32233  1.0000
  C   C138      1.0  0.34716  0.59673  0.82282  1.0000
  C   C139      1.0  0.65431  0.59035  0.82159  1.0000
  C   C140      1.0  0.34556  0.40992  0.32138  1.0000
  C   C141      1.0  0.85414  0.26463  0.50945  1.0000
  C   C142      1.0  0.14920  0.74161  0.01488  1.0000
  C   C143      1.0  0.85094  0.74419  0.01297  1.0000
  C   C144      1.0  0.14653  0.26314  0.51694  1.0000
  C   C145      1.0  0.74145  0.43837  0.57675  1.0000
  C   C146      1.0  0.25902  0.56280  0.07712  1.0000
  C   C147      1.0  0.74146  0.56009  0.07708  1.0000
  C   C148      1.0  0.25872  0.44088  0.57711  1.0000
  C   C149      1.0  0.66932  0.41618  0.50580  1.0000
  C   C150      1.0  0.33070  0.58553  0.00462  1.0000
  C   C151      1.0  0.66970  0.57929  0.00364  1.0000
  C   C152      1.0  0.32993  0.41914  0.50273  1.0000
  C   C153      1.0  0.73891  0.42220  0.42520  1.0000
  C   C154      1.0  0.26042  0.57778  0.92584  1.0000
  C   C155      1.0  0.73993  0.57704  0.92560  1.0000
  C   C156      1.0  0.25933  0.42366  0.42568  1.0000
  C   C157      1.0  0.76530  0.35833  0.50760  1.0000
  C   C158      1.0  0.23605  0.64241  0.00842  1.0000
  C   C159      1.0  0.76460  0.64274  0.01065  1.0000
  C   C160      1.0  0.23459  0.36043  0.50971  1.0000
  C   C161      1.0  0.75818  0.50718  0.49303  1.0000
  C   C162      1.0  0.23998  0.49268  0.99287  1.0000
  C   C163      1.0  0.76119  0.49265  0.99316  1.0000
  C   C164      1.0  0.24026  0.50944  0.49153  1.0000
  C   C165      1.0  0.83282  0.44389  0.49291  1.0000
  C   C166      1.0  0.16693  0.56126  0.99346  1.0000
  C   C167      1.0  0.83380  0.56383  0.99652  1.0000
  C   C168      1.0  0.16633  0.44397  0.49578  1.0000
  N   N1        1.0  0.34978  0.56783  0.79746  1.0000
  N   N2        1.0  0.65013  0.43432  0.29761  1.0000
  N   N3        1.0  0.34752  0.43839  0.29554  1.0000
  N   N4        1.0  0.65051  0.56011  0.79843  1.0000
  N   N5        1.0  0.85340  0.36426  0.01484  1.0000
  N   N6        1.0  0.14625  0.63652  0.51450  1.0000
  N   N7        1.0  0.85247  0.63833  0.51492  1.0000
  N   N8        1.0  0.14581  0.36569  0.01181  1.0000
  N   N9        1.0  0.36161  0.54458  0.19005  1.0000
  N   N10       1.0  0.63914  0.45127  0.69068  1.0000
  N   N11       1.0  0.36014  0.45968  0.69069  1.0000
  N   N12       1.0  0.63881  0.54110  0.18985  1.0000
  N   N13       1.0  0.85457  0.76663  0.98210  1.0000
  N   N14       1.0  0.14697  0.23349  0.49190  1.0000
  N   N15       1.0  0.85406  0.23660  0.48258  1.0000
  N   N16       1.0  0.14569  0.76533  0.98495  1.0000
  N   N17       1.0  0.96628  0.06721  0.99381  1.0000
  N   N18       1.0  0.03380  0.93411  0.49981  1.0000
  N   N19       1.0  0.96520  0.93656  0.49497  1.0000
  N   N20       1.0  0.03473  0.06482  0.99516  1.0000
  N   N21       1.0  0.46722  0.54602  0.50383  1.0000
  N   N22       1.0  0.53253  0.44820  0.00230  1.0000
  N   N23       1.0  0.46638  0.45156  0.00369  1.0000
  N   N24       1.0  0.53346  0.54466  0.50307  1.0000
  N   N25       1.0  0.50025  0.53751  0.44080  1.0000
  N   N26       1.0  0.49924  0.45612  0.94011  1.0000
  N   N27       1.0  0.50043  0.55452  0.56657  1.0000
  N   N28       1.0  0.49967  0.44340  0.06617  1.0000
  N   N29       1.0  0.00001  0.87515  0.50219  1.0000
  N   N30       1.0  0.00027  0.12627  0.99893  1.0000
  N   N31       1.0  0.99903  0.99570  0.49428  1.0000
  N   N32       1.0  0.00073  0.00569  0.99082  1.0000
  C   C169      1.0  0.36018  0.55536  0.71661  1.0000
  C   C170      1.0  0.36335  0.56489  0.75728  1.0000
  C  Sn1       1.0  0.38311  0.58073  0.77031  1.0000
  C  Sn2       1.0  0.39998  0.58712  0.74203  1.0000
  C   C171      1.0  0.39665  0.57752  0.70140  1.0000
  C   C172      1.0  0.37681  0.56167  0.68869  1.0000
  H   H129      1.0  0.34483  0.54312  0.70677  1.0000
  O  Te1       1.0  0.38601  0.59006  0.81105  1.0000
  O  Te2       1.0  0.41989  0.60293  0.75423  1.0000
  H   H130      1.0  0.37436  0.55432  0.65720  1.0000
  Mg  Mg1       1.0  0.41603  0.61090  0.81300  1.0000
  C   C173      1.0  0.63979  0.44578  0.21654  1.0000
  C   C174      1.0  0.63668  0.43668  0.25723  1.0000
  C  Sn3       1.0  0.61687  0.42137  0.27040  1.0000
  C  Sn4       1.0  0.59988  0.41507  0.24223  1.0000
  C   C175      1.0  0.60316  0.42424  0.20158  1.0000
  C   C176      1.0  0.62305  0.43956  0.18873  1.0000
  H   H131      1.0  0.65519  0.45762  0.20659  1.0000
  O  Te3       1.0  0.61403  0.41245  0.31118  1.0000
  O  Te4       1.0  0.57991  0.39978  0.25458  1.0000
  H   H132      1.0  0.62546  0.44658  0.15721  1.0000
  Mg  Mg2       1.0  0.58389  0.39225  0.31334  1.0000
  C   C177      1.0  0.39848  0.42199  0.25269  1.0000
  C   C178      1.0  0.39573  0.42932  0.21153  1.0000
  C  Sn5       1.0  0.37565  0.44150  0.19672  1.0000
  C  Sn6       1.0  0.35803  0.44643  0.22369  1.0000
  C   C179      1.0  0.36096  0.43905  0.26481  1.0000
  C   C180      1.0  0.38112  0.42685  0.27932  1.0000
  H   H133      1.0  0.41408  0.41258  0.26392  1.0000
  O  Te5       1.0  0.37318  0.44869  0.15551  1.0000
  O  Te6       1.0  0.33780  0.45859  0.20969  1.0000
  H   H134      1.0  0.38325  0.42121  0.31119  1.0000
  Mg  Mg3       1.0  0.34246  0.46472  0.15094  1.0000
  C   C181      1.0  0.63942  0.54352  0.71860  1.0000
  C   C182      1.0  0.63774  0.56014  0.75720  1.0000
  C  Sn7       1.0  0.61855  0.57844  0.76941  1.0000
  C  Sn8       1.0  0.60074  0.58007  0.74243  1.0000
  C   C183      1.0  0.60258  0.56332  0.70390  1.0000
  C   C184      1.0  0.62186  0.54509  0.69198  1.0000
  H   H135      1.0  0.65434  0.52940  0.70939  1.0000
  O  Te7       1.0  0.61714  0.59492  0.80807  1.0000
  O  Te8       1.0  0.58136  0.59816  0.75387  1.0000
  H   H136      1.0  0.62315  0.53220  0.66211  1.0000
  Mg  Mg4       1.0  0.58734  0.61637  0.80969  1.0000
  C   C185      1.0  0.05772  0.79178  0.54259  1.0000
  C   C186      1.0  0.05664  0.82437  0.51655  1.0000
  C  Sn9       1.0  0.07143  0.82814  0.48492  1.0000
  C  Sn10      1.0  0.08757  0.79868  0.47934  1.0000
  C   C187      1.0  0.08850  0.76617  0.50554  1.0000
  C   C188      1.0  0.07363  0.76270  0.53710  1.0000
  H   H137      1.0  0.04620  0.78908  0.56700  1.0000
  O  Te9       1.0  0.07013  0.86090  0.45919  1.0000
  O  Te10      1.0  0.10255  0.80170  0.44797  1.0000
  H   H138      1.0  0.07445  0.73745  0.55724  1.0000
  Mg  Mg5       1.0  0.09419  0.85182  0.42084  1.0000
  C   C189      1.0  0.93471  0.22696  0.03688  1.0000
  C   C190      1.0  0.91780  0.23541  0.01028  1.0000
  C  Sn11      1.0  0.91371  0.21355  0.97819  1.0000
  C  Sn12      1.0  0.92629  0.17866  0.97271  1.0000
  C   C191      1.0  0.94317  0.17046  0.99950  1.0000
  C   C192      1.0  0.94712  0.19255  0.03150  1.0000
  H   H139      1.0  0.93818  0.24709  0.06165  1.0000
  O  Te11      1.0  0.89675  0.22245  0.95189  1.0000
  O  Te12      1.0  0.92202  0.15235  0.94090  1.0000
  H   H140      1.0  0.96021  0.18598  0.05211  1.0000
  Mg  Mg6       1.0  0.89722  0.17742  0.91306  1.0000
  C   C193      1.0  0.08702  0.19320  0.97146  1.0000
  C   C194      1.0  0.08826  0.22583  0.99772  1.0000
  C  Sn13      1.0  0.07306  0.22559  0.02954  1.0000
  C  Sn14      1.0  0.05687  0.19602  0.03512  1.0000
  C   C195      1.0  0.05577  0.16348  0.00871  1.0000
  C   C196      1.0  0.07106  0.16402  0.97695  1.0000
  H   H141      1.0  0.09844  0.19055  0.94690  1.0000
  O  Te13      1.0  0.07452  0.25839  0.05549  1.0000
  O  Te14      1.0  0.04200  0.19898  0.06669  1.0000
  H   H142      1.0  0.07010  0.13874  0.95664  1.0000
  Mg  Mg7       1.0  0.05057  0.24919  0.09406  1.0000
  C   C197      1.0  0.93947  0.79724  0.54137  1.0000
  C   C198      1.0  0.94406  0.82369  0.51002  1.0000
  C  Sn15      1.0  0.93117  0.82401  0.47536  1.0000
  C  Sn16      1.0  0.91338  0.79733  0.47212  1.0000
  C   C199      1.0  0.90892  0.77100  0.50366  1.0000
  C   C200      1.0  0.92192  0.77092  0.53820  1.0000
  H   H143      1.0  0.94953  0.79720  0.56810  1.0000
  O  Te15      1.0  0.93598  0.85062  0.44432  1.0000
  O  Te16      1.0  0.90023  0.79702  0.43782  1.0000
  H   H144      1.0  0.91836  0.75046  0.56248  1.0000
  Mg  Mg8       1.0  0.91333  0.83890  0.40359  1.0000
  C   C201      1.0  0.08634  0.93733  0.95769  1.0000
  C   C202      1.0  0.08901  0.90623  0.98515  1.0000
  C  Sn17      1.0  0.07356  0.89672  0.01628  1.0000
  C  Sn18      1.0  0.05565  0.92281  0.01990  1.0000
  C   C203      1.0  0.05364  0.95776  0.99225  1.0000
  C   C204      1.0  0.06868  0.96307  0.96122  1.0000
  H   H145      1.0  0.09797  0.94143  0.93367  1.0000
  O  Te17      1.0  0.07647  0.86551  0.04347  1.0000
  O  Te18      1.0  0.04048  0.91792  0.05071  1.0000
  H   H146      1.0  0.06660  0.98714  0.93994  1.0000
  Mg  Mg9       1.0  0.05145  0.87101  0.08036  1.0000
  C   C205      1.0  0.92109  0.04660  0.45941  1.0000
  C   C206      1.0  0.93970  0.04247  0.48299  1.0000
  C  Sn19      1.0  0.94430  0.07002  0.51357  1.0000
  C  Sn20      1.0  0.92998  0.10226  0.52060  1.0000
  C   C207      1.0  0.91140  0.10612  0.49686  1.0000
  C   C208      1.0  0.90695  0.07839  0.46633  1.0000
  H   H147      1.0  0.91764  0.02514  0.43580  1.0000
  O  Te19      1.0  0.96297  0.06546  0.53685  1.0000
  O  Te20      1.0  0.93419  0.13021  0.55098  1.0000
  H   H148      1.0  0.89254  0.08158  0.44809  1.0000
  Mg  Mg10      1.0  0.96170  0.11126  0.57467  1.0000
  C   C209      1.0  0.08036  0.07079  0.45602  1.0000
  C   C210      1.0  0.08560  0.09795  0.48662  1.0000
  C  Sn21      1.0  0.07620  0.09441  0.52477  1.0000
  C  Sn22      1.0  0.06129  0.06305  0.53234  1.0000
  C   C211      1.0  0.05617  0.03601  0.50154  1.0000
  C   C212      1.0  0.06566  0.03984  0.46347  1.0000
  H   H149      1.0  0.08771  0.07374  0.42658  1.0000
  O  Te21      1.0  0.08161  0.12181  0.55499  1.0000
  O  Te22      1.0  0.05167  0.05880  0.57019  1.0000
  H   H150      1.0  0.06161  0.01879  0.43980  1.0000
  Mg  Mg11      1.0  0.06422  0.10359  0.60162  1.0000
  C   C213      1.0  0.91833  0.93301  0.94956  1.0000
  C   C214      1.0  0.91491  0.90287  0.97786  1.0000
  C  Sn23      1.0  0.92535  0.89971  0.01474  1.0000
  C  Sn24      1.0  0.94000  0.93130  0.02336  1.0000
  C   C215      1.0  0.94382  0.96527  0.99486  1.0000
  C   C216      1.0  0.93276  0.96419  0.95805  1.0000
  H   H151      1.0  0.90977  0.93218  0.92109  1.0000
  O  Te23      1.0  0.92176  0.86935  0.04267  1.0000
  O  Te24      1.0  0.95117  0.93283  0.05999  1.0000
  H   H152      1.0  0.93540  0.98754  0.93615  1.0000
  Mg  Mg12      1.0  0.94081  0.88455  0.08835  1.0000
  C   C217      1.0  0.40193  0.54635  0.22703  1.0000
  C   C218      1.0  0.37952  0.54161  0.22377  1.0000
  C  Sn25      1.0  0.36679  0.53834  0.25842  1.0000
  C  Sn26      1.0  0.37673  0.53985  0.29701  1.0000
  C   C219      1.0  0.39916  0.54463  0.29995  1.0000
  C   C220      1.0  0.41174  0.54786  0.26507  1.0000
  H   H153      1.0  0.41166  0.54888  0.20005  1.0000
  O  Te25      1.0  0.34442  0.53361  0.25463  1.0000
  O  Te26      1.0  0.36439  0.53667  0.33214  1.0000
  H   H154      1.0  0.42909  0.55155  0.26760  1.0000
  Mg  Mg13      1.0  0.33450  0.53059  0.31135  1.0000
  C   C221      1.0  0.62771  0.45321  0.79452  1.0000
  C   C222      1.0  0.60515  0.45521  0.79643  1.0000
  C  Sn27      1.0  0.59281  0.45367  0.76110  1.0000
  C  Sn28      1.0  0.60330  0.45005  0.72321  1.0000
  C   C223      1.0  0.62588  0.44805  0.72163  1.0000
  C   C224      1.0  0.63807  0.44963  0.75716  1.0000
  H   H155      1.0  0.63714  0.45441  0.82201  1.0000
  O  Te27      1.0  0.57029  0.45572  0.76355  1.0000
  O  Te28      1.0  0.59137  0.44843  0.68744  1.0000
  H   H156      1.0  0.65553  0.44806  0.75568  1.0000
  Mg  Mg14      1.0  0.56107  0.45233  0.70638  1.0000
  C   C225      1.0  0.40750  0.45606  0.74594  1.0000
  C   C226      1.0  0.40169  0.46103  0.78638  1.0000
  C  Sn29      1.0  0.37992  0.46410  0.79722  1.0000
  C  Sn30      1.0  0.36370  0.46215  0.76695  1.0000
  C   C227      1.0  0.36968  0.45715  0.72658  1.0000
  C   C228      1.0  0.39151  0.45412  0.71606  1.0000
  H   H157      1.0  0.42440  0.45369  0.73781  1.0000
  O  Te29      1.0  0.37440  0.46907  0.83777  1.0000
  O  Te30      1.0  0.34181  0.46513  0.77694  1.0000
  H   H158      1.0  0.39600  0.45025  0.68475  1.0000
  Mg  Mg15      1.0  0.34239  0.47167  0.83634  1.0000
  C   C229      1.0  0.62837  0.53723  0.29404  1.0000
  C   C230      1.0  0.60587  0.53993  0.29689  1.0000
  C  Sn31      1.0  0.59318  0.54103  0.26200  1.0000
  C  Sn32      1.0  0.60326  0.53937  0.22358  1.0000
  C   C231      1.0  0.62579  0.53665  0.22106  1.0000
  C   C232      1.0  0.63833  0.53558  0.25616  1.0000
  H   H159      1.0  0.63808  0.53638  0.32120  1.0000
  O  Te31      1.0  0.57072  0.54374  0.26539  1.0000
  O  Te32      1.0  0.59097  0.54040  0.18823  1.0000
  H   H160      1.0  0.65575  0.53346  0.25395  1.0000
  Mg  Mg16      1.0  0.56091  0.54423  0.20847  1.0000
  C   C233      1.0  0.68799  0.39335  0.63679  1.0000
  C   C234      1.0  0.67445  0.42321  0.65174  1.0000
  C  Sn33      1.0  0.66994  0.45679  0.62843  1.0000
  C  Sn34      1.0  0.67918  0.46045  0.58944  1.0000
  C   C235      1.0  0.69270  0.43039  0.57475  1.0000
  C   C236      1.0  0.69711  0.39692  0.59833  1.0000
  H   H161      1.0  0.69140  0.36744  0.65502  1.0000
  O  Te33      1.0  0.65639  0.48635  0.64383  1.0000
  O  Te34      1.0  0.67494  0.49368  0.56550  1.0000
  H   H162      1.0  0.70758  0.37380  0.58674  1.0000
  Mg  Mg17      1.0  0.65546  0.52603  0.59977  1.0000
  C   C237      1.0  0.32593  0.53525  0.09106  1.0000
  C   C238      1.0  0.30935  0.56160  0.08089  1.0000
  C  Sn35      1.0  0.30427  0.59343  0.10644  1.0000
  C  Sn36      1.0  0.31604  0.59892  0.14283  1.0000
  C   C239      1.0  0.33261  0.57242  0.15273  1.0000
  C   C240      1.0  0.33755  0.54066  0.12695  1.0000
  H   H163      1.0  0.32976  0.51069  0.07111  1.0000
  O  Te35      1.0  0.28766  0.61946  0.09582  1.0000
  O  Te36      1.0  0.31131  0.63050  0.16891  1.0000
  H   H164      1.0  0.35039  0.52028  0.13482  1.0000
  Mg  Mg18      1.0  0.28724  0.65801  0.14123  1.0000
  C   C241      1.0  0.67579  0.52953  0.09252  1.0000
  C   C242      1.0  0.68970  0.55953  0.07894  1.0000
  C  Sn37      1.0  0.69406  0.59274  0.10323  1.0000
  C  Sn38      1.0  0.68428  0.59588  0.14182  1.0000
  C   C243      1.0  0.67040  0.56569  0.15515  1.0000
  C   C244      1.0  0.66614  0.53259  0.13059  1.0000
  H   H165      1.0  0.67250  0.50390  0.07353  1.0000
  O  Te37      1.0  0.70800  0.62246  0.08919  1.0000
  O  Te38      1.0  0.68836  0.62875  0.16673  1.0000
  H   H166      1.0  0.65538  0.50935  0.14112  1.0000
  Mg  Mg19      1.0  0.70851  0.66149  0.13418  1.0000
  C   C245      1.0  0.33050  0.47149  0.61187  1.0000
  C   C246      1.0  0.33007  0.44559  0.64478  1.0000
  C  Sn39      1.0  0.31747  0.41094  0.64342  1.0000
  C  Sn40      1.0  0.30508  0.40213  0.60842  1.0000
  C   C247      1.0  0.30562  0.42823  0.57564  1.0000
  C   C248      1.0  0.31829  0.46282  0.57733  1.0000
  H   H167      1.0  0.34030  0.49825  0.61317  1.0000
  O  Te39      1.0  0.31723  0.38539  0.67658  1.0000
  O  Te40      1.0  0.29235  0.36770  0.60625  1.0000
  H   H168      1.0  0.31862  0.48286  0.55183  1.0000
  Mg  Mg20      1.0  0.29735  0.34216  0.65918  1.0000
  C   C249      1.0  0.82081  0.53696  0.53129  1.0000
  C   C250      1.0  0.80776  0.51854  0.50218  1.0000
  C  Sn41      1.0  0.80602  0.53479  0.46357  1.0000
  C  Sn42      1.0  0.81758  0.57014  0.45401  1.0000
  C   C251      1.0  0.83061  0.58832  0.48334  1.0000
  C   C252      1.0  0.83223  0.57181  0.52188  1.0000
  H   H169      1.0  0.82208  0.52417  0.56110  1.0000
  O  Te41      1.0  0.79290  0.51602  0.43485  1.0000
  O  Te42      1.0  0.81613  0.58701  0.41566  1.0000
  H   H170      1.0  0.84235  0.58606  0.54440  1.0000
  Mg  Mg21      1.0  0.79616  0.55043  0.38679  1.0000
  C   C253      1.0  0.18229  0.44116  0.94589  1.0000
  C   C254      1.0  0.17305  0.41832  0.97660  1.0000
  C  Sn43      1.0  0.17239  0.42852  0.01630  1.0000
  C  Sn44      1.0  0.18169  0.46625  0.02534  1.0000
  C   C255      1.0  0.19141  0.49283  0.99441  1.0000
  C   C256      1.0  0.19147  0.47838  0.95478  1.0000
  H   H171      1.0  0.18232  0.43000  0.91523  1.0000
  O  Te43      1.0  0.16309  0.40531  0.04661  1.0000
  O  Te44      1.0  0.18177  0.48111  0.06476  1.0000
  H   H172      1.0  0.19861  0.49609  0.93102  1.0000
  Mg  Mg22      1.0  0.16715  0.43841  0.09567  1.0000
  C   C257      1.0  0.82253  0.44653  0.94759  1.0000
  C   C258      1.0  0.83282  0.42544  0.97836  1.0000
  C  Sn45      1.0  0.82946  0.43272  0.01864  1.0000
  C  Sn46      1.0  0.81605  0.46567  0.02821  1.0000
  C   C259      1.0  0.80634  0.49049  0.99720  1.0000
  C   C260      1.0  0.80930  0.47902  0.95700  1.0000
  H   H173      1.0  0.82481  0.43764  0.91648  1.0000
  O  Te45      1.0  0.83987  0.41134  0.04901  1.0000
  O  Te46      1.0  0.81293  0.47751  0.06821  1.0000
  H   H174      1.0  0.80132  0.49533  0.93318  1.0000
  Mg  Mg23      1.0  0.83058  0.43896  0.09897  1.0000
  C   C261      1.0  0.18445  0.56408  0.44844  1.0000
  C   C262      1.0  0.17203  0.58322  0.47787  1.0000
  C  Sn47      1.0  0.17095  0.56794  0.51697  1.0000
  C  Sn48      1.0  0.18255  0.53283  0.52670  1.0000
  C   C263      1.0  0.19494  0.51392  0.49705  1.0000
  C   C264      1.0  0.19590  0.52947  0.45802  1.0000
  H   H175      1.0  0.18520  0.57612  0.41824  1.0000
  O  Te47      1.0  0.15846  0.58743  0.54600  1.0000
  O  Te48      1.0  0.18176  0.51692  0.56555  1.0000
  H   H176      1.0  0.20552  0.51465  0.43525  1.0000
  Mg  Mg24      1.0  0.16250  0.55422  0.59469  1.0000
  C   C265      1.0  0.67696  0.45323  0.37882  1.0000
  C   C266      1.0  0.66952  0.41875  0.35939  1.0000
  C  Sn49      1.0  0.67281  0.38138  0.37677  1.0000
  C  Sn50      1.0  0.68375  0.37858  0.41430  1.0000
  C   C267      1.0  0.69112  0.41325  0.43351  1.0000
  C   C268      1.0  0.68775  0.45049  0.41584  1.0000
  H   H177      1.0  0.67434  0.48204  0.36516  1.0000
  O  Te49      1.0  0.66528  0.34723  0.35695  1.0000
  O  Te50      1.0  0.68725  0.34161  0.43236  1.0000
  H   H178      1.0  0.69350  0.47718  0.43090  1.0000
  Mg  Mg25      1.0  0.67395  0.30364  0.39364  1.0000
  C   C269      1.0  0.32509  0.63198  0.88962  1.0000
  C   C270      1.0  0.33324  0.60180  0.86481  1.0000
  C  Sn51      1.0  0.32735  0.56210  0.87134  1.0000
  C  Sn52      1.0  0.31302  0.55252  0.90332  1.0000
  C   C271      1.0  0.30494  0.58293  0.92796  1.0000
  C   C272      1.0  0.31095  0.62256  0.92116  1.0000
  H   H179      1.0  0.32973  0.66264  0.88435  1.0000
  O  Te51      1.0  0.33565  0.53232  0.84628  1.0000
  O  Te52      1.0  0.30686  0.51309  0.91051  1.0000
  H   H180      1.0  0.30462  0.64592  0.94036  1.0000
  Mg  Mg26      1.0  0.32248  0.48301  0.86815  1.0000
  C   C273      1.0  0.68502  0.62498  0.90502  1.0000
  C   C274      1.0  0.69115  0.59079  0.92603  1.0000
  C  Sn53      1.0  0.68600  0.55302  0.91082  1.0000
  C  Sn54      1.0  0.67452  0.54951  0.87388  1.0000
  C   C275      1.0  0.66848  0.58389  0.85307  1.0000
  C   C276      1.0  0.67370  0.62154  0.86857  1.0000
  H   H181      1.0  0.68907  0.65412  0.91700  1.0000
  O  Te53      1.0  0.69224  0.51917  0.93221  1.0000
  O  Te54      1.0  0.66918  0.51212  0.85798  1.0000
  H   H182      1.0  0.66897  0.64801  0.85228  1.0000
  Mg  Mg27      1.0  0.68122  0.47480  0.89825  1.0000
  C   C277      1.0  0.31842  0.45558  0.37472  1.0000
  C   C278      1.0  0.33019  0.42321  0.35989  1.0000
  C  Sn55      1.0  0.32913  0.38632  0.37922  1.0000
  C  Sn56      1.0  0.31602  0.38184  0.41404  1.0000
  C   C279      1.0  0.30429  0.41440  0.42863  1.0000
  C   C280      1.0  0.30548  0.45119  0.40906  1.0000
  H   H183      1.0  0.31933  0.48403  0.35957  1.0000
  O  Te55      1.0  0.34101  0.35430  0.36401  1.0000
  O  Te56      1.0  0.31466  0.34531  0.43395  1.0000
  H   H184      1.0  0.29635  0.47623  0.42054  1.0000
  Mg  Mg28      1.0  0.33386  0.31049  0.40167  1.0000
  C   C281      1.0  0.83735  0.33612  0.54373  1.0000
  C   C282      1.0  0.83913  0.30428  0.51664  1.0000
  C  Sn57      1.0  0.82754  0.30446  0.48042  1.0000
  C  Sn58      1.0  0.81394  0.33717  0.47123  1.0000
  C   C283      1.0  0.81228  0.36890  0.49852  1.0000
  C   C284      1.0  0.82394  0.36841  0.53468  1.0000
  H   H185      1.0  0.84638  0.33576  0.57170  1.0000
  O  Te57      1.0  0.82950  0.27239  0.45371  1.0000
  O  Te58      1.0  0.80219  0.33812  0.43524  1.0000
  H   H186      1.0  0.82257  0.39309  0.55564  1.0000
  Mg  Mg29      1.0  0.81022  0.28741  0.40852  1.0000
  C   C285      1.0  0.18214  0.66975  0.96599  1.0000
  C   C286      1.0  0.18902  0.64417  0.99657  1.0000
  C  Sn59      1.0  0.18123  0.64561  0.03611  1.0000
  C  Sn60      1.0  0.16680  0.67720  0.04512  1.0000
  C   C287      1.0  0.15999  0.70261  0.01432  1.0000
  C   C288      1.0  0.16790  0.70091  0.97485  1.0000
  H   H187      1.0  0.18784  0.66538  0.93545  1.0000
  O  Te59      1.0  0.18827  0.61979  0.06629  1.0000
  O  Te60      1.0  0.15927  0.68324  0.08438  1.0000
  H   H188      1.0  0.16255  0.72070  0.95119  1.0000
  Mg  Mg30      1.0  0.17350  0.64018  0.11516  1.0000
  C   C289      1.0  0.81792  0.67089  0.96582  1.0000
  C   C290      1.0  0.81323  0.64311  0.99591  1.0000
  C  Sn61      1.0  0.81968  0.64573  0.03550  1.0000
  C  Sn62      1.0  0.83157  0.68079  0.04505  1.0000
  C   C291      1.0  0.83616  0.70842  0.01474  1.0000
  C   C292      1.0  0.82964  0.70549  0.97522  1.0000
  H   H189      1.0  0.81245  0.66559  0.93525  1.0000
  O  Te61      1.0  0.81486  0.61766  0.06519  1.0000
  O  Te62      1.0  0.83873  0.68811  0.08438  1.0000
  H   H190      1.0  0.83326  0.72702  0.95194  1.0000
  Mg  Mg31      1.0  0.82815  0.64098  0.11435  1.0000
  C   C293      1.0  0.18643  0.32612  0.47326  1.0000
  C   C294      1.0  0.18678  0.36023  0.49758  1.0000
  C  Sn63      1.0  0.17420  0.36201  0.53253  1.0000
  C  Sn64      1.0  0.16104  0.32897  0.54326  1.0000
  C   C295      1.0  0.16081  0.29496  0.51874  1.0000
  C   C296      1.0  0.17346  0.29350  0.48382  1.0000
  H   H191      1.0  0.19623  0.32498  0.44625  1.0000
  O  Te63      1.0  0.17473  0.39634  0.55649  1.0000
  O  Te64      1.0  0.14831  0.32994  0.57804  1.0000
  H   H192      1.0  0.17320  0.26707  0.46500  1.0000
  Mg  Mg32      1.0  0.15452  0.38338  0.60094  1.0000
  C   C297      1.0  0.44562  0.56954  0.35457  1.0000
  C   C298      1.0  0.44437  0.54801  0.39051  1.0000
  C  Sn65      1.0  0.42775  0.52027  0.39633  1.0000
  C  Sn66      1.0  0.41212  0.51403  0.36554  1.0000
  C   C299      1.0  0.41352  0.53570  0.32968  1.0000
  C   C300      1.0  0.43022  0.56339  0.32418  1.0000
  H   H193      1.0  0.45854  0.59094  0.35030  1.0000
  O  Te65      1.0  0.42674  0.49903  0.43243  1.0000
  O  Te66      1.0  0.39535  0.48648  0.37056  1.0000
  H   H194      1.0  0.43119  0.58003  0.29634  1.0000
  Mg  Mg33      1.0  0.40084  0.46479  0.42508  1.0000
  C   C301      1.0  0.56217  0.42135  0.83584  1.0000
  C   C302      1.0  0.57975  0.44658  0.82832  1.0000
  C  Sn67      1.0  0.58589  0.47530  0.85679  1.0000
  C  Sn68      1.0  0.57420  0.47875  0.89345  1.0000
  C   C303      1.0  0.55665  0.45335  0.90070  1.0000
  C   C304      1.0  0.55063  0.42473  0.87200  1.0000
  H   H195      1.0  0.55752  0.39919  0.81365  1.0000
  O  Te67      1.0  0.60349  0.50027  0.84878  1.0000
  O  Te68      1.0  0.58000  0.50718  0.92243  1.0000
  H   H196      1.0  0.53703  0.40519  0.87784  1.0000
  Mg  Mg34      1.0  0.60516  0.53435  0.89764  1.0000
  C   C305      1.0  0.43570  0.42812  0.83702  1.0000
  C   C306      1.0  0.41685  0.45048  0.83223  1.0000
  C  Sn69      1.0  0.41120  0.47926  0.86089  1.0000
  C  Sn70      1.0  0.42472  0.48571  0.89494  1.0000
  C   C307      1.0  0.44355  0.46320  0.89945  1.0000
  C   C308      1.0  0.44904  0.43447  0.87059  1.0000
  H   H197      1.0  0.43996  0.40591  0.81468  1.0000
  O  Te69      1.0  0.39230  0.50133  0.85565  1.0000
  O  Te70      1.0  0.41947  0.51428  0.92404  1.0000
  H   H198      1.0  0.46365  0.41718  0.87429  1.0000
  Mg  Mg35      1.0  0.39203  0.53684  0.90353  1.0000
  C   C309      1.0  0.56249  0.56763  0.33608  1.0000
  C   C310      1.0  0.58187  0.54685  0.33110  1.0000
  C  Sn71      1.0  0.58831  0.51874  0.35964  1.0000
  C  Sn72      1.0  0.57507  0.51135  0.39377  1.0000
  C   C311      1.0  0.55571  0.53227  0.39847  1.0000
  C   C312      1.0  0.54942  0.56034  0.36973  1.0000
  H   H199      1.0  0.55762  0.58934  0.31384  1.0000
  O  Te71      1.0  0.60772  0.49826  0.35420  1.0000
  O  Te72      1.0  0.58111  0.48340  0.42275  1.0000
  H   H200      1.0  0.53441  0.57641  0.37359  1.0000
  Mg  Mg36      1.0  0.60902  0.46306  0.40198  1.0000
  C   C313      1.0  0.41304  0.53186  0.63274  1.0000
  C   C314      1.0  0.41148  0.56006  0.66374  1.0000
  C  Sn73      1.0  0.42611  0.59186  0.66581  1.0000
  C  Sn74      1.0  0.44259  0.59542  0.63624  1.0000
  C   C315      1.0  0.44400  0.56707  0.60533  1.0000
  C   C316      1.0  0.42928  0.53536  0.60356  1.0000
  H   H201      1.0  0.40164  0.50733  0.63136  1.0000
  O  Te73      1.0  0.42433  0.61976  0.69699  1.0000
  O  Te74      1.0  0.45742  0.62692  0.63757  1.0000
  H   H202      1.0  0.43048  0.51354  0.57954  1.0000
  Mg  Mg37      1.0  0.44836  0.65740  0.68593  1.0000
  C   C317      1.0  0.55919  0.39885  0.14291  1.0000
  C   C318      1.0  0.55563  0.42936  0.11513  1.0000
  C  Sn75      1.0  0.56979  0.46186  0.11320  1.0000
  C  Sn76      1.0  0.58785  0.46376  0.13962  1.0000
  C   C319      1.0  0.59129  0.43307  0.16728  1.0000
  C   C320      1.0  0.57701  0.40069  0.16896  1.0000
  H   H203      1.0  0.54815  0.37378  0.14419  1.0000
  O  Te75      1.0  0.56598  0.49209  0.08528  1.0000
  O  Te76      1.0  0.60227  0.49590  0.13833  1.0000
  H   H204      1.0  0.57978  0.37706  0.19046  1.0000
  Mg  Mg38      1.0  0.59021  0.52976  0.09506  1.0000
  C   C321      1.0  0.41335  0.47404  0.13389  1.0000
  C   C322      1.0  0.40958  0.44373  0.16186  1.0000
  C  Sn77      1.0  0.42370  0.41142  0.16442  1.0000
  C  Sn78      1.0  0.44192  0.40950  0.13848  1.0000
  C   C323      1.0  0.44556  0.43999  0.11063  1.0000
  C   C324      1.0  0.43132  0.47218  0.10830  1.0000
  H   H205      1.0  0.40234  0.49896  0.13211  1.0000
  O  Te77      1.0  0.41970  0.38139  0.19253  1.0000
  O  Te78      1.0  0.45630  0.37755  0.14042  1.0000
  H   H206      1.0  0.43425  0.49565  0.08667  1.0000
  Mg  Mg39      1.0  0.44394  0.34392  0.18369  1.0000
  C   C325      1.0  0.58615  0.52391  0.63455  1.0000
  C   C326      1.0  0.59026  0.55497  0.66175  1.0000
  C  Sn79      1.0  0.57680  0.58833  0.66278  1.0000
  C  Sn80      1.0  0.55890  0.59054  0.63605  1.0000
  C   C327      1.0  0.55492  0.55929  0.60897  1.0000
  C   C328      1.0  0.56849  0.52606  0.60819  1.0000
  H   H207      1.0  0.59665  0.49819  0.63396  1.0000
  O  Te79      1.0  0.58115  0.61910  0.69013  1.0000
  O  Te80      1.0  0.54519  0.62352  0.63645  1.0000
  H   H208      1.0  0.56530  0.50201  0.58714  1.0000
  Mg  Mg40      1.0  0.55780  0.65788  0.67920  1.0000
  C   C329      1.0  0.12948  0.16494  0.45855  1.0000
  C   C330      1.0  0.13177  0.19596  0.48652  1.0000
  C  Sn81      1.0  0.11987  0.19564  0.52234  1.0000
  C  Sn82      1.0  0.10542  0.16364  0.53023  1.0000
  C   C331      1.0  0.10326  0.13273  0.50207  1.0000
  C   C332      1.0  0.11524  0.13335  0.46631  1.0000
  H   H209      1.0  0.13876  0.16540  0.43090  1.0000
  O  Te81      1.0  0.12235  0.22688  0.54995  1.0000
  O  Te82      1.0  0.09334  0.16257  0.56579  1.0000
  H   H210      1.0  0.11347  0.10932  0.44468  1.0000
  Mg  Mg41      1.0  0.10233  0.21203  0.59409  1.0000
  C   C333      1.0  0.90134  0.81879  0.01189  1.0000
  C   C334      1.0  0.90101  0.85842  0.99034  1.0000
  C  Sn83      1.0  0.88306  0.86706  0.96631  1.0000
  C  Sn84      1.0  0.86566  0.83941  0.96387  1.0000
  C   C335      1.0  0.86667  0.80381  0.98557  1.0000
  C   C336      1.0  0.88419  0.79151  0.00952  1.0000
  H   H211      1.0  0.91529  0.81234  0.03044  1.0000
  O  Te83      1.0  0.88246  0.90284  0.94496  1.0000
  O  Te84      1.0  0.84753  0.84730  0.94008  1.0000
  H   H212      1.0  0.88484  0.76390  0.02622  1.0000
  Mg  Mg42      1.0  0.85426  0.90011  0.91664  1.0000
  C   C337      1.0  0.11469  0.84211  0.94788  1.0000
  C   C338      1.0  0.10429  0.86003  0.98064  1.0000
  C  Sn85      1.0  0.10846  0.84405  0.01998  1.0000
  C  Sn86      1.0  0.12387  0.81351  0.02655  1.0000
  C   C339      1.0  0.13473  0.79973  0.99357  1.0000
  C   C340      1.0  0.12990  0.81199  0.95433  1.0000
  H   H213      1.0  0.11096  0.85160  0.91751  1.0000
  O  Te85      1.0  0.09792  0.86226  0.05237  1.0000
  O  Te86      1.0  0.12888  0.80092  0.06556  1.0000
  H   H214      1.0  0.13796  0.79813  0.92897  1.0000
  Mg  Mg43      1.0  0.11022  0.83480  0.09991  1.0000
  C   C341      1.0  0.88624  0.16452  0.53101  1.0000
  C   C342      1.0  0.89436  0.14137  0.49935  1.0000
  C  Sn87      1.0  0.88960  0.15114  0.45938  1.0000
  C  Sn88      1.0  0.87647  0.18473  0.45105  1.0000
  C   C343      1.0  0.86844  0.20771  0.48293  1.0000
  C   C344      1.0  0.87330  0.19766  0.52281  1.0000
  H   H215      1.0  0.89000  0.15676  0.56186  1.0000
  O  Te87      1.0  0.89784  0.12769  0.42812  1.0000
  O  Te88      1.0  0.87148  0.19517  0.41138  1.0000
  H   H216      1.0  0.86702  0.21560  0.54731  1.0000
  Mg  Mg44      1.0  0.88651  0.15396  0.37907  1.0000
  C   C345      1.0  0.12212  0.69372  0.46897  1.0000
  C   C346      1.0  0.13251  0.67530  0.50134  1.0000
  C  Sn89      1.0  0.12772  0.68659  0.54095  1.0000
  C  Sn90      1.0  0.11222  0.71688  0.54819  1.0000
  C   C347      1.0  0.10190  0.73510  0.51559  1.0000
  C   C348      1.0  0.10682  0.72358  0.47607  1.0000
  H   H217      1.0  0.12591  0.68480  0.43839  1.0000
  O  Te89      1.0  0.13826  0.66790  0.57295  1.0000
  O  Te90      1.0  0.10712  0.72872  0.58747  1.0000
  H   H218      1.0  0.09876  0.73783  0.45101  1.0000
  Mg  Mg45      1.0  0.12581  0.69439  0.62108  1.0000
  C   C349      1.0  0.88117  0.28507  0.96662  1.0000
  C   C350      1.0  0.89478  0.27058  0.99685  1.0000
  C  Sn91      1.0  0.89286  0.28170  0.03612  1.0000
  C  Sn92      1.0  0.87755  0.31182  0.04520  1.0000
  C   C351      1.0  0.86399  0.32610  0.01475  1.0000
  C   C352      1.0  0.86605  0.31476  0.97555  1.0000
  H   H219      1.0  0.88234  0.27323  0.93629  1.0000
  O  Te91      1.0  0.90659  0.26690  0.06596  1.0000
  O  Te92      1.0  0.87581  0.32740  0.08419  1.0000
  H   H220      1.0  0.85550  0.32597  0.95216  1.0000
  Mg  Mg46      1.0  0.89808  0.29761  0.11455  1.0000
  C   C353      1.0  0.12295  0.30592  0.05008  1.0000
  C   C354      1.0  0.13172  0.32672  0.01747  1.0000
  C  Sn93      1.0  0.12598  0.32118  0.97806  1.0000
  C  Sn94      1.0  0.11063  0.29031  0.97127  1.0000
  C   C355      1.0  0.10141  0.26575  0.00409  1.0000
  C   C356      1.0  0.10780  0.27547  0.04340  1.0000
  H   H221      1.0  0.12788  0.31345  0.08050  1.0000
  O  Te93      1.0  0.13491  0.34225  0.94583  1.0000
  O  Te94      1.0  0.10407  0.28023  0.93219  1.0000
  H   H222      1.0  0.10100  0.25937  0.06865  1.0000
  Mg  Mg47      1.0  0.12085  0.31754  0.89812  1.0000
  C   C357      1.0  0.88951  0.70307  0.46764  1.0000
  C   C358      1.0  0.89388  0.73223  0.49679  1.0000
  C  Sn95      1.0  0.88452  0.72969  0.53506  1.0000
  C  Sn96      1.0  0.87054  0.69733  0.54422  1.0000
  C   C359      1.0  0.86628  0.66829  0.51485  1.0000
  C   C360      1.0  0.87573  0.67113  0.47666  1.0000
  H   H223      1.0  0.89683  0.70525  0.43809  1.0000
  O  Te95      1.0  0.88904  0.75909  0.56382  1.0000
  O  Te96      1.0  0.86097  0.69405  0.58223  1.0000
  H   H224      1.0  0.87236  0.64854  0.45410  1.0000
  Mg  Mg48      1.0  0.87212  0.74156  0.61131  1.0000
