data_image0
_chemical_formula_structural       H224C312N32SnCSn2CSnTe4Mg2SnCSn2CSnTe4Mg2SnCSn2CSnTe4Mg2SnCSn2CSnTe4Mg2SnCSn2CSnTe4Mg2SnCSn2CSnTe4Mg2SnCSn2CSnTe4Mg2SnCSn2CSnTe4Mg2SnCSn2CSnTe4Mg2SnCSn2CSnTe4Mg2SnCSn2CSnTe4Mg2SnCSn2CSnTe4Mg2SnCSn2CSnTe4Mg2SnCSn2CSnTe4Mg2SnCSn2CSnTe4Mg2SnCSn2CSnTe4Mg2SnCSn2CSnTe4Mg2SnCSn2CSnTe4Mg2SnCSn2CSnTe4Mg2SnCSn2CSnTe4Mg2SnCSn2CSnTe4Mg2SnCSn2CSnTe4Mg2SnCSn2CSnTe4Mg2SnCSn2CSnTe4Mg2
_chemical_formula_sum              "H224 C360 N32 Sn96 Te96 Mg48"
_cell_length_a       61.7979
_cell_length_b       33.5453
_cell_length_c       33.1432
_cell_angle_alpha    90.2285
_cell_angle_beta     90.0554
_cell_angle_gamma    90.2278

_symmetry_space_group_name_H-M    'P1'
_space_group_IT_number       1

loop_
  _space_group_symop_operation_xyz
  'x, y, z'

loop_
  _atom_site_type_symbol
  _atom_site_label
  _atom_site_symmetry_multiplicity
  _atom_site_fract_x
  _atom_site_fract_y
  _atom_site_fract_z
  _atom_site_occupancy
  H   H1        1.0  0.73018  0.40345  0.40340  1.0000
  H   H2        1.0  0.26961  0.59375  0.90266  1.0000
  H   H3        1.0  0.73111  0.56150  0.90144  1.0000
  H   H4        1.0  0.26776  0.40494  0.40358  1.0000
  H   H5        1.0  0.75540  0.41087  0.42881  1.0000
  H   H6        1.0  0.24453  0.59182  0.92936  1.0000
  H   H7        1.0  0.74151  0.60835  0.91617  1.0000
  H   H8        1.0  0.24289  0.41203  0.43008  1.0000
  H   H9        1.0  0.74030  0.45208  0.41177  1.0000
  H   H10       1.0  0.25745  0.54735  0.91444  1.0000
  H   H11       1.0  0.75631  0.56485  0.92772  1.0000
  H   H12       1.0  0.25772  0.45345  0.41221  1.0000
  H   H13       1.0  0.75508  0.45862  0.57099  1.0000
  H   H14       1.0  0.24685  0.53927  0.07261  1.0000
  H   H15       1.0  0.75462  0.53881  0.07183  1.0000
  H   H16       1.0  0.24536  0.46171  0.57190  1.0000
  H   H17       1.0  0.74851  0.41042  0.58791  1.0000
  H   H18       1.0  0.25005  0.58983  0.08571  1.0000
  H   H19       1.0  0.74918  0.58791  0.08753  1.0000
  H   H20       1.0  0.25138  0.41307  0.58829  1.0000
  H   H21       1.0  0.73149  0.45079  0.60102  1.0000
  H   H22       1.0  0.26939  0.55469  0.10257  1.0000
  H   H23       1.0  0.73130  0.54899  0.10165  1.0000
  H   H24       1.0  0.26911  0.45277  0.60113  1.0000
  H   H25       1.0  0.66340  0.39878  0.48001  1.0000
  H   H26       1.0  0.33609  0.60634  0.98128  1.0000
  H   H27       1.0  0.66165  0.55052  0.99781  1.0000
  H   H28       1.0  0.33447  0.39013  0.48987  1.0000
  H   H29       1.0  0.66105  0.44515  0.50478  1.0000
  H   H30       1.0  0.33894  0.55711  0.99859  1.0000
  H   H31       1.0  0.66376  0.59027  0.03274  1.0000
  H   H32       1.0  0.33765  0.44189  0.48371  1.0000
  H   H33       1.0  0.66421  0.40144  0.53368  1.0000
  H   H34       1.0  0.33638  0.59640  0.03398  1.0000
  H   H35       1.0  0.66426  0.59962  0.97992  1.0000
  H   H36       1.0  0.33685  0.42119  0.53304  1.0000
  H   H37       1.0  0.32309  0.51710  0.06229  1.0000
  H   H38       1.0  0.34507  0.51403  0.12548  1.0000
  H   H39       1.0  0.31461  0.62117  0.16789  1.0000
  H   H40       1.0  0.29322  0.62495  0.10448  1.0000
  H   H41       1.0  0.31163  0.65003  0.93375  1.0000
  H   H42       1.0  0.69266  0.64517  0.92893  1.0000
  H   H43       1.0  0.31308  0.35561  0.43456  1.0000
  H   H44       1.0  0.33444  0.65581  0.87226  1.0000
  H   H45       1.0  0.67012  0.65062  0.86685  1.0000
  H   H46       1.0  0.33551  0.35107  0.37242  1.0000
  H   H47       1.0  0.30650  0.52354  0.91478  1.0000
  H   H48       1.0  0.69039  0.51744  0.91955  1.0000
  H   H49       1.0  0.30270  0.48018  0.41241  1.0000
  H   H50       1.0  0.32906  0.52952  0.85237  1.0000
  H   H51       1.0  0.66831  0.52295  0.85630  1.0000
  H   H52       1.0  0.32492  0.47551  0.34944  1.0000
  H   H53       1.0  0.16373  0.42299  0.04890  1.0000
  H   H54       1.0  0.18438  0.48710  0.05420  1.0000
  H   H55       1.0  0.17823  0.41741  0.92227  1.0000
  H   H56       1.0  0.19838  0.48155  0.92733  1.0000
  H   H57       1.0  0.76746  0.53480  0.48952  1.0000
  H   H58       1.0  0.23130  0.46690  0.00523  1.0000
  H   H59       1.0  0.77054  0.46655  0.00250  1.0000
  H   H60       1.0  0.23246  0.53560  0.50502  1.0000
  H   H61       1.0  0.74806  0.51002  0.52016  1.0000
  H   H62       1.0  0.25550  0.49602  0.00862  1.0000
  H   H63       1.0  0.74633  0.49423  0.01116  1.0000
  H   H64       1.0  0.25623  0.50547  0.50532  1.0000
  H   H65       1.0  0.74694  0.50430  0.46744  1.0000
  H   H66       1.0  0.24366  0.48558  0.96115  1.0000
  H   H67       1.0  0.75614  0.48765  0.96165  1.0000
  H   H68       1.0  0.24295  0.51631  0.45946  1.0000
  H   H69       1.0  0.83714  0.46773  0.47180  1.0000
  H   H70       1.0  0.16025  0.53398  0.00666  1.0000
  H   H71       1.0  0.83948  0.53887  0.97795  1.0000
  H   H72       1.0  0.16170  0.46941  0.47704  1.0000
  H   H73       1.0  0.83998  0.41593  0.48231  1.0000
  H   H74       1.0  0.16219  0.56123  0.96142  1.0000
  H   H75       1.0  0.84035  0.59167  0.98425  1.0000
  H   H76       1.0  0.15910  0.41683  0.48304  1.0000
  H   H77       1.0  0.84056  0.45144  0.52188  1.0000
  H   H78       1.0  0.15910  0.58698  0.00761  1.0000
  H   H79       1.0  0.84088  0.56003  0.02674  1.0000
  H   H80       1.0  0.15890  0.44877  0.52556  1.0000
  H   H81       1.0  0.75012  0.36078  0.52451  1.0000
  H   H82       1.0  0.24911  0.64072  0.03084  1.0000
  H   H83       1.0  0.74746  0.64102  0.00236  1.0000
  H   H84       1.0  0.24810  0.36302  0.53109  1.0000
  H   H85       1.0  0.77600  0.33727  0.52292  1.0000
  H   H86       1.0  0.22491  0.66618  0.01723  1.0000
  H   H87       1.0  0.76550  0.65191  0.04256  1.0000
  H   H88       1.0  0.22341  0.33739  0.52035  1.0000
  H   H89       1.0  0.76115  0.34519  0.47808  1.0000
  H   H90       1.0  0.24377  0.65123  0.97987  1.0000
  H   H91       1.0  0.77234  0.66656  0.99318  1.0000
  H   H92       1.0  0.24161  0.35000  0.48106  1.0000
  H   H93       1.0  0.80305  0.34361  0.44506  1.0000
  H   H94       1.0  0.19211  0.65281  0.94255  1.0000
  H   H95       1.0  0.80929  0.65170  0.94210  1.0000
  H   H96       1.0  0.82701  0.28375  0.44862  1.0000
  H   H97       1.0  0.16937  0.71428  0.94786  1.0000
  H   H98       1.0  0.83210  0.71352  0.94634  1.0000
  H   H99       1.0  0.84916  0.32152  0.56563  1.0000
  H   H100      1.0  0.15974  0.69141  0.07404  1.0000
  H   H101      1.0  0.83970  0.69561  0.07384  1.0000
  H   H102      1.0  0.82503  0.38064  0.56246  1.0000
  H   H103      1.0  0.18247  0.63046  0.06880  1.0000
  H   H104      1.0  0.81697  0.63425  0.06967  1.0000
  H   H105      1.0  0.45511  0.38716  0.13465  1.0000
  H   H106      1.0  0.54619  0.61353  0.63102  1.0000
  H   H107      1.0  0.42724  0.38297  0.18802  1.0000
  H   H108      1.0  0.57387  0.61833  0.68481  1.0000
  H   H109      1.0  0.42650  0.49532  0.09111  1.0000
  H   H110      1.0  0.57296  0.50192  0.59194  1.0000
  H   H111      1.0  0.39845  0.49112  0.14435  1.0000
  H   H112      1.0  0.60052  0.50613  0.64612  1.0000
  H   H113      1.0  0.36998  0.53634  0.32825  1.0000
  H   H114      1.0  0.62920  0.45621  0.82869  1.0000
  H   H115      1.0  0.36896  0.46604  0.82901  1.0000
  H   H116      1.0  0.34690  0.53836  0.26708  1.0000
  H   H117      1.0  0.65302  0.45526  0.76845  1.0000
  H   H118      1.0  0.34565  0.46532  0.76799  1.0000
  H   H119      1.0  0.63056  0.53480  0.66862  1.0000
  H   H120      1.0  0.65665  0.53309  0.72511  1.0000
  H   H121      1.0  0.13089  0.67438  0.44608  1.0000
  H   H122      1.0  0.12763  0.33178  0.94309  1.0000
  H   H123      1.0  0.10571  0.73072  0.44651  1.0000
  H   H124      1.0  0.10305  0.27383  0.94306  1.0000
  H   H125      1.0  0.10562  0.73093  0.57648  1.0000
  H   H126      1.0  0.10809  0.26610  0.07221  1.0000
  H   H127      1.0  0.13075  0.67312  0.57576  1.0000
  H   H128      1.0  0.13283  0.32489  0.07229  1.0000
  H   H129      1.0  0.90137  0.79153  0.44755  1.0000
  H   H130      1.0  0.92887  0.84550  0.44484  1.0000
  H   H131      1.0  0.47797  0.51307  0.35377  1.0000
  H   H132      1.0  0.52086  0.47973  0.85252  1.0000
  H   H133      1.0  0.47727  0.48210  0.85358  1.0000
  H   H134      1.0  0.52151  0.51216  0.35330  1.0000
  H   H135      1.0  0.58273  0.55552  0.46099  1.0000
  H   H136      1.0  0.41691  0.44033  0.96232  1.0000
  H   H137      1.0  0.58107  0.43215  0.95926  1.0000
  H   H138      1.0  0.41810  0.55863  0.46166  1.0000
  H   H139      1.0  0.58282  0.56391  0.54184  1.0000
  H   H140      1.0  0.41720  0.43307  0.04330  1.0000
  H   H141      1.0  0.58154  0.42584  0.04033  1.0000
  H   H142      1.0  0.41831  0.56810  0.54241  1.0000
  H   H143      1.0  0.57706  0.49172  0.42071  1.0000
  H   H144      1.0  0.57585  0.49901  0.92010  1.0000
  H   H145      1.0  0.42307  0.49355  0.42120  1.0000
  H   H146      1.0  0.53984  0.58420  0.36467  1.0000
  H   H147      1.0  0.53874  0.40600  0.86298  1.0000
  H   H148      1.0  0.46065  0.58620  0.36552  1.0000
  H   H149      1.0  0.47894  0.55411  0.65757  1.0000
  H   H150      1.0  0.52217  0.44658  0.15629  1.0000
  H   H151      1.0  0.47861  0.44909  0.15729  1.0000
  H   H152      1.0  0.52248  0.55145  0.65709  1.0000
  H   H153      1.0  0.66025  0.40691  0.71059  1.0000
  H   H154      1.0  0.34025  0.58803  0.21127  1.0000
  H   H155      1.0  0.65943  0.58674  0.20954  1.0000
  H   H156      1.0  0.33928  0.41472  0.71056  1.0000
  H   H157      1.0  0.42545  0.45614  0.75396  1.0000
  H   H158      1.0  0.42681  0.54502  0.25378  1.0000
  H   H159      1.0  0.57324  0.44952  0.75156  1.0000
  H   H160      1.0  0.40214  0.45681  0.69289  1.0000
  H   H161      1.0  0.40363  0.54644  0.19265  1.0000
  H   H162      1.0  0.59715  0.44965  0.69141  1.0000
  H   H163      1.0  0.43513  0.58740  0.30809  1.0000
  H   H164      1.0  0.56444  0.40530  0.80580  1.0000
  H   H165      1.0  0.56532  0.58516  0.30715  1.0000
  H   H166      1.0  0.39738  0.49477  0.36369  1.0000
  H   H167      1.0  0.60171  0.49823  0.86291  1.0000
  H   H168      1.0  0.60272  0.49281  0.36319  1.0000
  H   H169      1.0  0.58410  0.59277  0.74552  1.0000
  H   H170      1.0  0.61074  0.59285  0.80139  1.0000
  H   H171      1.0  0.87504  0.89256  0.94769  1.0000
  H   H172      1.0  0.84995  0.83464  0.94552  1.0000
  H   H173      1.0  0.91819  0.82608  0.02380  1.0000
  H   H174      1.0  0.89277  0.76917  0.02283  1.0000
  H   H175      1.0  0.95381  0.80885  0.55977  1.0000
  H   H176      1.0  0.92632  0.75492  0.56273  1.0000
  H   H177      1.0  0.10173  0.92881  0.94088  1.0000
  H   H178      1.0  0.89839  0.07334  0.44061  1.0000
  H   H179      1.0  0.90685  0.91826  0.92708  1.0000
  H   H180      1.0  0.08170  0.97684  0.50860  1.0000
  H   H181      1.0  0.91838  0.02499  0.00394  1.0000
  H   H182      1.0  0.08268  0.02439  0.00904  1.0000
  H   H183      1.0  0.91673  0.97602  0.50514  1.0000
  H   H184      1.0  0.08250  0.89659  0.51366  1.0000
  H   H185      1.0  0.08249  0.10462  0.01446  1.0000
  H   H186      1.0  0.91723  0.89572  0.50900  1.0000
  H   H187      1.0  0.98279  0.06833  0.99219  1.0000
  H   H188      1.0  0.01729  0.93244  0.49811  1.0000
  H   H189      1.0  0.98172  0.93771  0.49372  1.0000
  H   H190      1.0  0.01825  0.06411  0.99238  1.0000
  H   H191      1.0  0.97964  0.21812  0.98584  1.0000
  H   H192      1.0  0.02107  0.78301  0.49392  1.0000
  H   H193      1.0  0.97752  0.78411  0.49117  1.0000
  H   H194      1.0  0.02315  0.21693  0.98819  1.0000
  H   H195      1.0  0.50049  0.54409  0.47091  1.0000
  H   H196      1.0  0.50023  0.55244  0.53582  1.0000
  H   H197      1.0  0.49936  0.44971  0.97021  1.0000
  H   H198      1.0  0.49941  0.44457  0.03539  1.0000
  H   H199      1.0  0.35520  0.62578  0.81872  1.0000
  H   H200      1.0  0.64766  0.62002  0.81501  1.0000
  H   H201      1.0  0.64529  0.37593  0.31737  1.0000
  H   H202      1.0  0.35427  0.38159  0.31761  1.0000
  H   H203      1.0  0.15890  0.63998  0.45564  1.0000
  H   H204      1.0  0.13510  0.26476  0.54234  1.0000
  H   H205      1.0  0.86547  0.26456  0.53510  1.0000
  H   H206      1.0  0.92526  0.01891  0.44098  1.0000
  H   H207      1.0  0.93049  0.12808  0.54202  1.0000
  H   H208      1.0  0.95694  0.07293  0.54302  1.0000
  H   H209      1.0  0.84114  0.63890  0.45523  1.0000
  H   H210      1.0  0.97866  0.08696  0.47627  1.0000
  H   H211      1.0  0.02222  0.08551  0.47951  1.0000
  H   H212      1.0  0.91792  0.10533  0.00950  1.0000
  H   H213      1.0  0.97792  0.91590  0.97299  1.0000
  H   H214      1.0  0.02156  0.91467  0.97269  1.0000
  H   H215      1.0  0.07451  0.98278  0.94084  1.0000
  H   H216      1.0  0.04273  0.92905  0.04229  1.0000
  H   H217      1.0  0.06959  0.87449  0.04199  1.0000
  H   H218      1.0  0.14168  0.74574  0.04468  1.0000
  H   H219      1.0  0.15713  0.36470  0.95197  1.0000
  H   H220      1.0  0.85229  0.37762  0.95305  1.0000
  H   H221      1.0  0.92467  0.88674  0.04842  1.0000
  H   H222      1.0  0.95164  0.94145  0.04926  1.0000
  H   H223      1.0  0.85784  0.75090  0.04290  1.0000
  H   H224      1.0  0.93295  0.97441  0.92919  1.0000
  C   C1        1.0  0.62611  0.54781  0.69752  1.0000
  C   C2        1.0  0.64089  0.54686  0.72905  1.0000
  C   C3        1.0  0.92827  0.82569  0.47072  1.0000
  C   C4        1.0  0.91291  0.79513  0.47214  1.0000
  C   C5        1.0  0.60026  0.58104  0.74039  1.0000
  C   C6        1.0  0.61519  0.58112  0.77190  1.0000
  C   C7        1.0  0.05567  0.92888  0.02009  1.0000
  C   C8        1.0  0.94410  0.07309  0.52053  1.0000
  C   C9        1.0  0.94172  0.93633  0.02259  1.0000
  C   C10       1.0  0.07092  0.89843  0.02007  1.0000
  C   C11       1.0  0.92907  0.10394  0.52012  1.0000
  C   C12       1.0  0.92668  0.90528  0.02183  1.0000
  C   C13       1.0  0.45398  0.55403  0.53613  1.0000
  C   C14       1.0  0.54595  0.44096  0.03452  1.0000
  C   C15       1.0  0.45311  0.44532  0.03633  1.0000
  C   C16       1.0  0.54687  0.55160  0.53545  1.0000
  C   C17       1.0  0.46055  0.55687  0.57696  1.0000
  C   C18       1.0  0.53967  0.44023  0.07555  1.0000
  C   C19       1.0  0.45979  0.44417  0.07717  1.0000
  C   C20       1.0  0.54041  0.55391  0.57632  1.0000
  C   C21       1.0  0.44291  0.44162  0.10905  1.0000
  C   C22       1.0  0.55745  0.55719  0.60788  1.0000
  C   C23       1.0  0.63571  0.56372  0.76670  1.0000
  C   C24       1.0  0.56923  0.55697  0.52237  1.0000
  C   C25       1.0  0.43069  0.43968  0.02359  1.0000
  C   C26       1.0  0.56803  0.43342  0.02104  1.0000
  C   C27       1.0  0.43171  0.56022  0.52297  1.0000
  C   C28       1.0  0.98289  0.15160  0.99600  1.0000
  C   C29       1.0  0.01746  0.84978  0.50144  1.0000
  C   C30       1.0  0.98212  0.85075  0.49937  1.0000
  C   C31       1.0  0.01823  0.15056  0.99739  1.0000
  C   C32       1.0  0.99005  0.19271  0.99068  1.0000
  C   C33       1.0  0.01047  0.80848  0.49672  1.0000
  C   C34       1.0  0.98845  0.80906  0.49539  1.0000
  C   C35       1.0  0.01207  0.19210  0.99171  1.0000
  C   C36       1.0  0.94334  0.83105  0.50209  1.0000
  C   C37       1.0  0.13297  0.67009  0.51130  1.0000
  C   C38       1.0  0.13247  0.33197  0.00800  1.0000
  C   C39       1.0  0.04001  0.13824  0.00078  1.0000
  C   C40       1.0  0.96023  0.86291  0.50017  1.0000
  C   C41       1.0  0.03948  0.86128  0.50424  1.0000
  C   C42       1.0  0.96083  0.14024  0.99810  1.0000
  C   C43       1.0  0.37746  0.53903  0.29866  1.0000
  C   C44       1.0  0.62210  0.45414  0.79868  1.0000
  C   C45       1.0  0.37627  0.46338  0.79926  1.0000
  C   C46       1.0  0.36440  0.54087  0.26438  1.0000
  C   C47       1.0  0.63555  0.45296  0.76494  1.0000
  C   C48       1.0  0.36311  0.46241  0.76504  1.0000
  C   C49       1.0  0.93105  0.95518  0.95534  1.0000
  C   C50       1.0  0.07353  0.95914  0.96315  1.0000
  C   C51       1.0  0.92633  0.04264  0.46337  1.0000
  C   C52       1.0  0.40795  0.45742  0.75713  1.0000
  C   C53       1.0  0.40928  0.54441  0.25684  1.0000
  C   C54       1.0  0.59073  0.44997  0.75539  1.0000
  C   C55       1.0  0.39501  0.45791  0.72286  1.0000
  C   C56       1.0  0.39641  0.54508  0.22251  1.0000
  C   C57       1.0  0.60400  0.45011  0.72163  1.0000
  C   C58       1.0  0.94223  0.80515  0.53528  1.0000
  C   C59       1.0  0.92667  0.77496  0.53698  1.0000
  C   C60       1.0  0.45381  0.54615  0.47064  1.0000
  C   C61       1.0  0.54568  0.44656  0.96885  1.0000
  C   C62       1.0  0.45283  0.45126  0.97070  1.0000
  C   C63       1.0  0.54683  0.54449  0.46990  1.0000
  C   C64       1.0  0.46026  0.53870  0.43043  1.0000
  C   C65       1.0  0.53905  0.45368  0.92870  1.0000
  C   C66       1.0  0.45925  0.45774  0.93035  1.0000
  C   C67       1.0  0.54015  0.53729  0.42975  1.0000
  C   C68       1.0  0.40012  0.54139  0.29564  1.0000
  C   C69       1.0  0.59948  0.45198  0.79463  1.0000
  C   C70       1.0  0.39887  0.46007  0.79604  1.0000
  C   C71       1.0  0.37372  0.54425  0.22581  1.0000
  C   C72       1.0  0.62664  0.45056  0.72591  1.0000
  C   C73       1.0  0.37235  0.45929  0.72636  1.0000
  C   C74       1.0  0.56918  0.55279  0.48147  1.0000
  C   C75       1.0  0.43054  0.44330  0.98267  1.0000
  C   C76       1.0  0.56782  0.43665  0.98008  1.0000
  C   C77       1.0  0.43164  0.55552  0.48215  1.0000
  C   C78       1.0  0.98282  0.98160  0.98657  1.0000
  C   C79       1.0  0.01704  0.01974  0.49154  1.0000
  C   C80       1.0  0.98173  0.02095  0.48974  1.0000
  C   C81       1.0  0.01810  0.98050  0.98703  1.0000
  C   C82       1.0  0.98901  0.94041  0.97847  1.0000
  C   C83       1.0  0.01103  0.06100  0.48380  1.0000
  C   C84       1.0  0.98901  0.06173  0.48232  1.0000
  C   C85       1.0  0.01103  0.93977  0.97847  1.0000
  C   C86       1.0  0.94422  0.96165  0.98929  1.0000
  C   C87       1.0  0.94314  0.04190  0.49203  1.0000
  C   C88       1.0  0.05663  0.95970  0.99151  1.0000
  C   C89       1.0  0.86918  0.79849  0.98510  1.0000
  C   C90       1.0  0.04005  0.99165  0.99145  1.0000
  C   C91       1.0  0.95966  0.00977  0.49233  1.0000
  C   C92       1.0  0.03875  0.00773  0.49596  1.0000
  C   C93       1.0  0.96106  0.99367  0.99000  1.0000
  C   C94       1.0  0.48214  0.55542  0.59051  1.0000
  C   C95       1.0  0.51821  0.44296  0.08951  1.0000
  C   C96       1.0  0.48148  0.44493  0.09033  1.0000
  C   C97       1.0  0.51887  0.55367  0.59013  1.0000
  C   C98       1.0  0.48950  0.55434  0.63155  1.0000
  C   C99       1.0  0.51129  0.44541  0.13072  1.0000
  C   C100      1.0  0.48904  0.44664  0.13122  1.0000
  C   C101      1.0  0.51176  0.55313  0.63132  1.0000
  C   C102      1.0  0.48177  0.53230  0.41788  1.0000
  C   C103      1.0  0.51752  0.46069  0.91663  1.0000
  C   C104      1.0  0.48084  0.46264  0.91748  1.0000
  C   C105      1.0  0.51848  0.53159  0.41751  1.0000
  C   C106      1.0  0.48878  0.52056  0.37839  1.0000
  C   C107      1.0  0.51024  0.47262  0.87744  1.0000
  C   C108      1.0  0.48799  0.47381  0.87796  1.0000
  C   C109      1.0  0.51103  0.52011  0.37816  1.0000
  C   C110      1.0  0.04679  0.90107  0.50430  1.0000
  C   C111      1.0  0.95347  0.10047  0.99871  1.0000
  C   C112      1.0  0.04722  0.09851  0.00130  1.0000
  C   C113      1.0  0.95280  0.90254  0.49961  1.0000
  C   C114      1.0  0.06856  0.91543  0.50886  1.0000
  C   C115      1.0  0.93171  0.08635  0.00388  1.0000
  C   C116      1.0  0.06895  0.08509  0.00784  1.0000
  C   C117      1.0  0.93083  0.91554  0.50410  1.0000
  C   C118      1.0  0.04615  0.96850  0.50054  1.0000
  C   C119      1.0  0.95380  0.03300  0.99469  1.0000
  C   C120      1.0  0.04739  0.03106  0.99680  1.0000
  C   C121      1.0  0.95232  0.97013  0.49601  1.0000
  C   C122      1.0  0.06816  0.95637  0.50640  1.0000
  C   C123      1.0  0.93191  0.04539  0.00119  1.0000
  C   C124      1.0  0.06904  0.04414  0.00508  1.0000
  C   C125      1.0  0.93055  0.95652  0.50207  1.0000
  C   C126      1.0  0.33138  0.56739  0.15072  1.0000
  C   C127      1.0  0.33354  0.53797  0.12061  1.0000
  C   C128      1.0  0.31640  0.59826  0.14477  1.0000
  C   C129      1.0  0.30437  0.60038  0.10920  1.0000
  C   C130      1.0  0.32134  0.53994  0.08545  1.0000
  C   C131      1.0  0.30675  0.57143  0.07882  1.0000
  C   C132      1.0  0.65594  0.42882  0.68732  1.0000
  C   C133      1.0  0.34480  0.56709  0.18709  1.0000
  C   C134      1.0  0.65530  0.56454  0.18619  1.0000
  C   C135      1.0  0.34356  0.43646  0.68704  1.0000
  C   C136      1.0  0.70571  0.42705  0.54010  1.0000
  C   C137      1.0  0.29467  0.57397  0.03997  1.0000
  C   C138      1.0  0.70583  0.56973  0.03964  1.0000
  C   C139      1.0  0.29404  0.42993  0.53923  1.0000
  C   C140      1.0  0.72840  0.43140  0.53877  1.0000
  C   C141      1.0  0.27195  0.56949  0.03907  1.0000
  C   C142      1.0  0.72859  0.56666  0.03891  1.0000
  C   C143      1.0  0.27129  0.43372  0.53871  1.0000
  C   C144      1.0  0.73905  0.42939  0.50124  1.0000
  C   C145      1.0  0.26102  0.57099  0.00175  1.0000
  C   C146      1.0  0.73961  0.56925  0.00176  1.0000
  C   C147      1.0  0.26020  0.43134  0.50163  1.0000
  C   C148      1.0  0.72730  0.42388  0.46524  1.0000
  C   C149      1.0  0.27246  0.57683  0.96551  1.0000
  C   C150      1.0  0.72814  0.57401  0.96539  1.0000
  C   C151      1.0  0.27148  0.42573  0.46519  1.0000
  C   C152      1.0  0.70459  0.42015  0.46703  1.0000
  C   C153      1.0  0.29513  0.58154  0.96685  1.0000
  C   C154      1.0  0.70541  0.57687  0.96664  1.0000
  C   C155      1.0  0.29416  0.42229  0.46619  1.0000
  C   C156      1.0  0.69364  0.42125  0.50429  1.0000
  C   C157      1.0  0.30637  0.58033  0.00390  1.0000
  C   C158      1.0  0.69408  0.57515  0.00345  1.0000
  C   C159      1.0  0.30561  0.42396  0.50301  1.0000
  C   C160      1.0  0.76312  0.43306  0.49973  1.0000
  C   C161      1.0  0.23688  0.56759  0.00060  1.0000
  C   C162      1.0  0.76378  0.56758  0.00108  1.0000
  C   C163      1.0  0.23614  0.43485  0.50074  1.0000
  C   C164      1.0  0.77265  0.47109  0.49564  1.0000
  C   C165      1.0  0.22665  0.53023  0.99607  1.0000
  C   C166      1.0  0.77433  0.53054  0.99697  1.0000
  C   C167      1.0  0.22646  0.47245  0.49600  1.0000
  C   C168      1.0  0.79537  0.47441  0.49478  1.0000
  C   C169      1.0  0.20385  0.52830  0.99468  1.0000
  C   C170      1.0  0.79710  0.52945  0.99610  1.0000
  C   C171      1.0  0.20371  0.47498  0.49539  1.0000
  C   C172      1.0  0.80852  0.44010  0.49684  1.0000
  C   C173      1.0  0.19129  0.56326  0.99745  1.0000
  C   C174      1.0  0.80938  0.56494  0.99848  1.0000
  C   C175      1.0  0.19068  0.44053  0.49863  1.0000
  C   C176      1.0  0.79867  0.40238  0.50103  1.0000
  C   C177      1.0  0.20185  0.60037  0.00215  1.0000
  C   C178      1.0  0.79855  0.60157  0.00279  1.0000
  C   C179      1.0  0.20070  0.40303  0.50317  1.0000
  C   C180      1.0  0.77593  0.39864  0.50277  1.0000
  C   C181      1.0  0.22459  0.60277  0.00388  1.0000
  C   C182      1.0  0.77579  0.60322  0.00445  1.0000
  C   C183      1.0  0.22346  0.40007  0.50445  1.0000
  C   C184      1.0  0.19262  0.48897  0.99104  1.0000
  C   C185      1.0  0.18293  0.47175  0.02533  1.0000
  C   C186      1.0  0.17146  0.43616  0.02263  1.0000
  C   C187      1.0  0.16945  0.41618  0.98533  1.0000
  C   C188      1.0  0.17957  0.43270  0.95123  1.0000
  C   C189      1.0  0.19093  0.46870  0.95405  1.0000
  C   C190      1.0  0.84150  0.62418  0.48486  1.0000
  C   C191      1.0  0.15677  0.37946  0.98169  1.0000
  C   C192      1.0  0.84721  0.38484  0.98404  1.0000
  C   C193      1.0  0.15783  0.62406  0.48456  1.0000
  C   C194      1.0  0.30764  0.58629  0.92865  1.0000
  C   C195      1.0  0.69296  0.58093  0.92837  1.0000
  C   C196      1.0  0.30655  0.41830  0.42787  1.0000
  C   C197      1.0  0.31251  0.55249  0.90510  1.0000
  C   C198      1.0  0.68608  0.54650  0.90754  1.0000
  C   C199      1.0  0.30983  0.45193  0.40329  1.0000
  C   C200      1.0  0.32507  0.55562  0.87044  1.0000
  C   C201      1.0  0.67380  0.54937  0.87254  1.0000
  C   C202      1.0  0.32218  0.44952  0.36834  1.0000
  C   C203      1.0  0.33329  0.59289  0.85833  1.0000
  C   C204      1.0  0.66781  0.58697  0.85760  1.0000
  C   C205      1.0  0.33175  0.41313  0.35699  1.0000
  C   C206      1.0  0.32824  0.62681  0.88151  1.0000
  C   C207      1.0  0.67471  0.62143  0.87826  1.0000
  C   C208      1.0  0.32828  0.37938  0.38120  1.0000
  C   C209      1.0  0.31545  0.62359  0.91603  1.0000
  C   C210      1.0  0.68733  0.61842  0.91304  1.0000
  C   C211      1.0  0.31573  0.38190  0.41606  1.0000
  C   C212      1.0  0.65298  0.40519  0.32233  1.0000
  C   C213      1.0  0.34716  0.59673  0.82282  1.0000
  C   C214      1.0  0.65431  0.59035  0.82159  1.0000
  C   C215      1.0  0.34556  0.40992  0.32138  1.0000
  C   C216      1.0  0.81246  0.36621  0.50352  1.0000
  C   C217      1.0  0.18872  0.63745  0.00531  1.0000
  C   C218      1.0  0.81154  0.63900  0.00568  1.0000
  C   C219      1.0  0.81304  0.33843  0.47157  1.0000
  C   C220      1.0  0.18504  0.66152  0.97131  1.0000
  C   C221      1.0  0.81586  0.66169  0.97092  1.0000
  C   C222      1.0  0.82633  0.30517  0.47331  1.0000
  C   C223      1.0  0.17246  0.69569  0.97406  1.0000
  C   C224      1.0  0.82854  0.69594  0.97305  1.0000
  C   C225      1.0  0.83962  0.29876  0.50719  1.0000
  C   C226      1.0  0.16310  0.70677  0.01115  1.0000
  C   C227      1.0  0.83730  0.70861  0.01022  1.0000
  C   C228      1.0  0.83900  0.32634  0.53924  1.0000
  C   C229      1.0  0.16689  0.68294  0.04524  1.0000
  C   C230      1.0  0.83295  0.68607  0.04499  1.0000
  C   C231      1.0  0.82552  0.35949  0.53750  1.0000
  C   C232      1.0  0.17960  0.64882  0.04236  1.0000
  C   C233      1.0  0.82020  0.65171  0.04271  1.0000
  C   C234      1.0  0.85414  0.26463  0.50945  1.0000
  C   C235      1.0  0.14920  0.74161  0.01488  1.0000
  C   C236      1.0  0.85094  0.74419  0.01297  1.0000
  C   C237      1.0  0.14653  0.26314  0.51694  1.0000
  C   C238      1.0  0.74145  0.43837  0.57675  1.0000
  C   C239      1.0  0.25902  0.56280  0.07712  1.0000
  C   C240      1.0  0.74146  0.56009  0.07708  1.0000
  C   C241      1.0  0.25872  0.44088  0.57711  1.0000
  C   C242      1.0  0.66932  0.41618  0.50580  1.0000
  C   C243      1.0  0.33070  0.58553  0.00462  1.0000
  C   C244      1.0  0.66970  0.57929  0.00364  1.0000
  C   C245      1.0  0.32993  0.41914  0.50273  1.0000
  C   C246      1.0  0.73891  0.42220  0.42520  1.0000
  C   C247      1.0  0.26042  0.57778  0.92584  1.0000
  C   C248      1.0  0.73993  0.57704  0.92560  1.0000
  C   C249      1.0  0.25933  0.42366  0.42568  1.0000
  C   C250      1.0  0.76530  0.35833  0.50760  1.0000
  C   C251      1.0  0.23605  0.64241  0.00842  1.0000
  C   C252      1.0  0.76460  0.64274  0.01065  1.0000
  C   C253      1.0  0.23459  0.36043  0.50971  1.0000
  C   C254      1.0  0.75818  0.50718  0.49303  1.0000
  C   C255      1.0  0.23998  0.49268  0.99287  1.0000
  C   C256      1.0  0.76119  0.49265  0.99316  1.0000
  C   C257      1.0  0.24026  0.50944  0.49153  1.0000
  C   C258      1.0  0.83282  0.44389  0.49291  1.0000
  C   C259      1.0  0.16693  0.56126  0.99346  1.0000
  C   C260      1.0  0.83380  0.56383  0.99652  1.0000
  C   C261      1.0  0.16633  0.44397  0.49578  1.0000
  C   C262      1.0  0.08872  0.92853  0.96298  1.0000
  C   C263      1.0  0.91133  0.07360  0.46290  1.0000
  C   C264      1.0  0.91624  0.92367  0.95436  1.0000
  C   C265      1.0  0.41443  0.54094  0.33134  1.0000
  C   C266      1.0  0.58489  0.45194  0.82990  1.0000
  C   C267      1.0  0.58579  0.53876  0.33069  1.0000
  C   C268      1.0  0.43255  0.56648  0.33262  1.0000
  C   C269      1.0  0.56684  0.42622  0.83059  1.0000
  C   C270      1.0  0.56778  0.56428  0.33175  1.0000
  C   C271      1.0  0.41107  0.51530  0.36427  1.0000
  C   C272      1.0  0.58809  0.47754  0.86312  1.0000
  C   C273      1.0  0.58908  0.51324  0.36369  1.0000
  C   C274      1.0  0.44387  0.53955  0.39747  1.0000
  C   C275      1.0  0.55533  0.45277  0.89564  1.0000
  C   C276      1.0  0.55642  0.53762  0.39671  1.0000
  C   C277      1.0  0.60537  0.56429  0.70260  1.0000
  C   C278      1.0  0.41073  0.43676  0.17026  1.0000
  C   C279      1.0  0.58921  0.56238  0.66985  1.0000
  C   C280      1.0  0.42716  0.40797  0.16720  1.0000
  C   C281      1.0  0.57356  0.59238  0.66501  1.0000
  C   C282      1.0  0.44287  0.41027  0.13715  1.0000
  C   C283      1.0  0.55799  0.58983  0.63466  1.0000
  C   C284      1.0  0.42652  0.47047  0.11212  1.0000
  C   C285      1.0  0.57328  0.52752  0.61220  1.0000
  C   C286      1.0  0.41072  0.46802  0.14203  1.0000
  C   C287      1.0  0.58882  0.53005  0.64261  1.0000
  C   C288      1.0  0.91379  0.89792  0.98751  1.0000
  C   C289      1.0  0.08766  0.89744  0.99130  1.0000
  C   C290      1.0  0.91244  0.10506  0.49110  1.0000
  C   C291      1.0  0.89843  0.86406  0.98651  1.0000
  C   C292      1.0  0.90294  0.82870  0.00765  1.0000
  C   C293      1.0  0.88863  0.79657  0.00720  1.0000
  C   C294      1.0  0.86484  0.83331  0.96295  1.0000
  C   C295      1.0  0.87906  0.86554  0.96407  1.0000
  C   C296      1.0  0.91179  0.76916  0.50531  1.0000
  C   C297      1.0  0.10374  0.73543  0.51146  1.0000
  C   C298      1.0  0.10387  0.26537  0.00749  1.0000
  C   C299      1.0  0.11105  0.71857  0.54784  1.0000
  C   C300      1.0  0.11238  0.28044  0.04392  1.0000
  C   C301      1.0  0.12525  0.68648  0.54772  1.0000
  C   C302      1.0  0.12632  0.31310  0.04415  1.0000
  C   C303      1.0  0.12583  0.68708  0.47479  1.0000
  C   C304      1.0  0.12393  0.31700  0.97143  1.0000
  C   C305      1.0  0.11158  0.71903  0.47505  1.0000
  C   C306      1.0  0.11003  0.28427  0.97135  1.0000
  C   C307      1.0  0.55348  0.56384  0.36411  1.0000
  C   C308      1.0  0.55242  0.42651  0.86281  1.0000
  C   C309      1.0  0.44688  0.56592  0.36498  1.0000
  C   C310      1.0  0.57461  0.51254  0.39604  1.0000
  C   C311      1.0  0.57354  0.47805  0.89532  1.0000
  C   C312      1.0  0.42555  0.51454  0.39668  1.0000
  N   N1        1.0  0.34978  0.56783  0.79746  1.0000
  N   N2        1.0  0.65013  0.43432  0.29761  1.0000
  N   N3        1.0  0.34752  0.43839  0.29554  1.0000
  N   N4        1.0  0.65051  0.56011  0.79843  1.0000
  N   N5        1.0  0.85340  0.36426  0.01484  1.0000
  N   N6        1.0  0.14625  0.63652  0.51450  1.0000
  N   N7        1.0  0.85247  0.63833  0.51492  1.0000
  N   N8        1.0  0.14581  0.36569  0.01181  1.0000
  N   N9        1.0  0.36161  0.54458  0.19005  1.0000
  N   N10       1.0  0.63914  0.45127  0.69068  1.0000
  N   N11       1.0  0.36014  0.45968  0.69069  1.0000
  N   N12       1.0  0.63881  0.54110  0.18985  1.0000
  N   N13       1.0  0.85457  0.76663  0.98210  1.0000
  N   N14       1.0  0.14697  0.23349  0.49190  1.0000
  N   N15       1.0  0.85406  0.23660  0.48258  1.0000
  N   N16       1.0  0.14569  0.76533  0.98495  1.0000
  N   N17       1.0  0.96628  0.06721  0.99381  1.0000
  N   N18       1.0  0.03380  0.93411  0.49981  1.0000
  N   N19       1.0  0.96520  0.93656  0.49497  1.0000
  N   N20       1.0  0.03473  0.06482  0.99516  1.0000
  N   N21       1.0  0.46722  0.54602  0.50383  1.0000
  N   N22       1.0  0.53253  0.44820  0.00230  1.0000
  N   N23       1.0  0.46638  0.45156  0.00369  1.0000
  N   N24       1.0  0.53346  0.54466  0.50307  1.0000
  N   N25       1.0  0.50025  0.53751  0.44080  1.0000
  N   N26       1.0  0.49924  0.45612  0.94011  1.0000
  N   N27       1.0  0.50043  0.55452  0.56657  1.0000
  N   N28       1.0  0.49967  0.44340  0.06617  1.0000
  N   N29       1.0  0.00001  0.87515  0.50219  1.0000
  N   N30       1.0  0.00027  0.12627  0.99893  1.0000
  N   N31       1.0  0.99903  0.99570  0.49428  1.0000
  N   N32       1.0  0.00073  0.00569  0.99082  1.0000
  C  Sn1       1.0  0.92637  0.18555  0.96337  1.0000
  C   C313      1.0  0.94433  0.17970  0.98827  1.0000
  C  Sn2       1.0  0.94532  0.19527  0.02549  1.0000
  C  Sn3       1.0  0.92851  0.22115  0.03810  1.0000
  C   C314      1.0  0.91056  0.22698  0.01321  1.0000
  C  Sn4       1.0  0.90957  0.21143  0.97598  1.0000
  O  Te1       1.0  0.92520  0.16574  0.92629  1.0000
  O  Te2       1.0  0.96344  0.18895  0.04985  1.0000
  O  Te3       1.0  0.92970  0.24096  0.07521  1.0000
  O  Te4       1.0  0.89146  0.21773  0.95163  1.0000
  Mg  Mg1       1.0  0.95760  0.22269  0.09774  1.0000
  Mg  Mg2       1.0  0.89727  0.18400  0.90374  1.0000
  C  Sn5       1.0  0.87332  0.17085  0.44845  1.0000
  C   C315      1.0  0.86440  0.19209  0.48072  1.0000
  C  Sn6       1.0  0.87327  0.18893  0.51936  1.0000
  C  Sn7       1.0  0.89143  0.16405  0.52588  1.0000
  C   C316      1.0  0.90034  0.14284  0.49362  1.0000
  C  Sn8       1.0  0.89148  0.14597  0.45497  1.0000
  O  Te5       1.0  0.86420  0.17446  0.41008  1.0000
  O  Te6       1.0  0.86407  0.21044  0.55115  1.0000
  O  Te7       1.0  0.90055  0.16045  0.56429  1.0000
  O  Te8       1.0  0.90067  0.12448  0.42320  1.0000
  Mg  Mg3       1.0  0.88227  0.19571  0.59791  1.0000
  Mg  Mg4       1.0  0.88248  0.13921  0.37642  1.0000
  C  Sn9       1.0  0.08239  0.20236  0.96647  1.0000
  C   C317      1.0  0.08460  0.23239  0.99555  1.0000
  C  Sn10      1.0  0.07325  0.22559  0.03240  1.0000
  C  Sn11      1.0  0.05994  0.19200  0.04038  1.0000
  C   C318      1.0  0.05773  0.16199  0.01132  1.0000
  C  Sn12      1.0  0.06908  0.16877  0.97445  1.0000
  O  Te9       1.0  0.09337  0.20584  0.92983  1.0000
  O  Te10      1.0  0.07571  0.25599  0.06100  1.0000
  O  Te11      1.0  0.04896  0.18854  0.07705  1.0000
  O  Te12      1.0  0.06663  0.13839  0.94587  1.0000
  Mg  Mg5       1.0  0.05746  0.23767  0.10640  1.0000
  Mg  Mg6       1.0  0.08488  0.15667  0.90046  1.0000
  C  Sn13      1.0  0.35785  0.43583  0.21453  1.0000
  C   C319      1.0  0.36090  0.42730  0.25538  1.0000
  C  Sn14      1.0  0.38175  0.42528  0.27154  1.0000
  C  Sn15      1.0  0.39994  0.43196  0.24635  1.0000
  C   C320      1.0  0.39689  0.44049  0.20553  1.0000
  C  Sn16      1.0  0.37604  0.44251  0.18935  1.0000
  O  Te13      1.0  0.33686  0.43770  0.19903  1.0000
  O  Te14      1.0  0.38439  0.41669  0.31246  1.0000
  O  Te15      1.0  0.42094  0.43008  0.26189  1.0000
  O  Te16      1.0  0.37340  0.45110  0.14845  1.0000
  Mg  Mg7       1.0  0.41620  0.41742  0.31950  1.0000
  Mg  Mg8       1.0  0.34159  0.45040  0.14139  1.0000
  C  Sn17      1.0  0.58225  0.47227  0.14120  1.0000
  C   C321      1.0  0.58476  0.44247  0.17015  1.0000
  C  Sn18      1.0  0.57422  0.40580  0.16562  1.0000
  C  Sn19      1.0  0.56091  0.39877  0.13143  1.0000
  C   C322      1.0  0.55841  0.42856  0.10250  1.0000
  C  Sn20      1.0  0.56894  0.46524  0.10701  1.0000
  O  Te17      1.0  0.59294  0.50870  0.14635  1.0000
  O  Te18      1.0  0.57698  0.37647  0.19497  1.0000
  O  Te19      1.0  0.55022  0.36230  0.12630  1.0000
  O  Te20      1.0  0.56619  0.49456  0.07768  1.0000
  Mg  Mg9       1.0  0.55905  0.33170  0.17448  1.0000
  Mg  Mg10      1.0  0.58412  0.53932  0.09812  1.0000
  C  Sn21      1.0  0.86899  0.29592  0.97230  1.0000
  C   C323      1.0  0.86254  0.31514  0.00562  1.0000
  C  Sn22      1.0  0.87507  0.31489  0.04071  1.0000
  C  Sn23      1.0  0.89394  0.29102  0.04253  1.0000
  C   C324      1.0  0.89986  0.26788  0.00923  1.0000
  C  Sn24      1.0  0.88785  0.27204  0.97413  1.0000
  O  Te21      1.0  0.85622  0.29663  0.93753  1.0000
  O  Te22      1.0  0.86882  0.33829  0.07363  1.0000
  O  Te23      1.0  0.90671  0.29033  0.07734  1.0000
  O  Te24      1.0  0.89411  0.24867  0.94122  1.0000
  Mg  Mg11      1.0  0.89151  0.32731  0.11426  1.0000
  Mg  Mg12      1.0  0.87143  0.25964  0.90057  1.0000
  C  Sn25      1.0  0.17903  0.56482  0.53051  1.0000
  C   C325      1.0  0.17566  0.58836  0.49640  1.0000
  C  Sn26      1.0  0.17953  0.57298  0.45786  1.0000
  C  Sn27      1.0  0.18692  0.53324  0.45332  1.0000
  C   C326      1.0  0.19029  0.50973  0.48742  1.0000
  C  Sn28      1.0  0.18642  0.52508  0.52597  1.0000
  O  Te25      1.0  0.17505  0.58081  0.56875  1.0000
  O  Te26      1.0  0.17605  0.59708  0.42421  1.0000
  O  Te27      1.0  0.19090  0.51726  0.41504  1.0000
  O  Te28      1.0  0.18990  0.50100  0.55961  1.0000
  Mg  Mg13      1.0  0.18375  0.56180  0.37844  1.0000
  Mg  Mg14      1.0  0.18219  0.53624  0.60538  1.0000
  C  Sn29      1.0  0.17465  0.34957  0.54927  1.0000
  C   C327      1.0  0.18901  0.35942  0.51829  1.0000
  C  Sn30      1.0  0.18800  0.33950  0.48124  1.0000
  C  Sn31      1.0  0.17231  0.30913  0.47501  1.0000
  C   C328      1.0  0.15796  0.29930  0.50597  1.0000
  C  Sn32      1.0  0.15895  0.31919  0.54304  1.0000
  O  Te29      1.0  0.17594  0.36986  0.58607  1.0000
  O  Te30      1.0  0.20254  0.34987  0.45073  1.0000
  O  Te31      1.0  0.17102  0.28883  0.43817  1.0000
  O  Te32      1.0  0.14443  0.30885  0.57354  1.0000
  Mg  Mg15      1.0  0.19435  0.31366  0.40588  1.0000
  Mg  Mg16      1.0  0.15259  0.34505  0.61839  1.0000
  C  Sn33      1.0  0.12516  0.14160  0.46598  1.0000
  C   C329      1.0  0.11027  0.13065  0.49568  1.0000
  C  Sn34      1.0  0.10459  0.15752  0.52615  1.0000
  C  Sn35      1.0  0.11398  0.19616  0.52693  1.0000
  C   C330      1.0  0.12886  0.20710  0.49724  1.0000
  C  Sn36      1.0  0.13455  0.18024  0.46676  1.0000
  O  Te33      1.0  0.13060  0.11425  0.43581  1.0000
  O  Te34      1.0  0.08967  0.14589  0.55552  1.0000
  O  Te35      1.0  0.10854  0.22352  0.55713  1.0000
  O  Te36      1.0  0.14946  0.19186  0.43740  1.0000
  Mg  Mg17      1.0  0.08744  0.19372  0.59043  1.0000
  Mg  Mg18      1.0  0.15170  0.14406  0.40247  1.0000
  C  Sn37      1.0  0.36330  0.54451  0.72218  1.0000
  C   C331      1.0  0.36617  0.55808  0.76175  1.0000
  C  Sn38      1.0  0.38349  0.58324  0.77147  1.0000
  C  Sn39      1.0  0.39824  0.59512  0.74099  1.0000
  C   C332      1.0  0.39536  0.58156  0.70145  1.0000
  C  Sn40      1.0  0.37805  0.55639  0.69170  1.0000
  O  Te37      1.0  0.34588  0.51938  0.71314  1.0000
  O  Te38      1.0  0.38603  0.59641  0.81125  1.0000
  O  Te39      1.0  0.41567  0.62027  0.75006  1.0000
  O  Te40      1.0  0.37551  0.54323  0.65195  1.0000
  Mg  Mg19      1.0  0.41229  0.63030  0.80860  1.0000
  Mg  Mg20      1.0  0.34925  0.50936  0.65456  1.0000
  C  Sn41      1.0  0.12717  0.83096  0.95063  1.0000
  C   C333      1.0  0.13546  0.80986  0.98343  1.0000
  C  Sn42      1.0  0.12556  0.80975  0.02158  1.0000
  C  Sn43      1.0  0.10752  0.83519  0.02705  1.0000
  C   C334      1.0  0.09976  0.86022  0.99427  1.0000
  C  Sn44      1.0  0.10913  0.85640  0.95611  1.0000
  O  Te41      1.0  0.13680  0.82667  0.91277  1.0000
  O  Te42      1.0  0.13414  0.78836  0.05391  1.0000
  O  Te43      1.0  0.09789  0.83947  0.06496  1.0000
  O  Te44      1.0  0.10056  0.87777  0.92379  1.0000
  Mg  Mg21      1.0  0.11540  0.80412  0.09965  1.0000
  Mg  Mg22      1.0  0.11928  0.86203  0.87804  1.0000
  C  Sn45      1.0  0.68197  0.60464  0.13132  1.0000
  C   C335      1.0  0.66759  0.57483  0.14362  1.0000
  C  Sn46      1.0  0.66754  0.53762  0.12455  1.0000
  C  Sn47      1.0  0.68219  0.53003  0.09254  1.0000
  C   C336      1.0  0.69657  0.55982  0.08026  1.0000
  C  Sn48      1.0  0.69662  0.59704  0.09930  1.0000
  O  Te45      1.0  0.68174  0.64162  0.15081  1.0000
  O  Te46      1.0  0.65301  0.50830  0.13738  1.0000
  O  Te47      1.0  0.68242  0.49301  0.07305  1.0000
  O  Te48      1.0  0.71115  0.62635  0.08650  1.0000
  Mg  Mg23      1.0  0.65953  0.46266  0.10139  1.0000
  Mg  Mg24      1.0  0.70465  0.67199  0.12248  1.0000
  C  Sn49      1.0  0.32765  0.46237  0.58775  1.0000
  C   C337      1.0  0.31270  0.43327  0.57576  1.0000
  C  Sn50      1.0  0.30455  0.40600  0.60368  1.0000
  C  Sn51      1.0  0.31148  0.40786  0.64446  1.0000
  C   C338      1.0  0.32642  0.43694  0.65644  1.0000
  C  Sn52      1.0  0.33458  0.46422  0.62853  1.0000
  O  Te49      1.0  0.33558  0.48933  0.55932  1.0000
  O  Te50      1.0  0.28962  0.37718  0.59097  1.0000
  O  Te51      1.0  0.30353  0.38086  0.67289  1.0000
  O  Te52      1.0  0.34949  0.49303  0.64123  1.0000
  Mg  Mg25      1.0  0.28348  0.34707  0.64095  1.0000
  Mg  Mg26      1.0  0.35564  0.52317  0.59128  1.0000
  C  Sn53      1.0  0.61186  0.40270  0.26377  1.0000
  C   C339      1.0  0.63322  0.41655  0.26333  1.0000
  C  Sn54      1.0  0.64051  0.44089  0.23201  1.0000
  C  Sn55      1.0  0.62616  0.45162  0.20049  1.0000
  C   C340      1.0  0.60482  0.43777  0.20094  1.0000
  C  Sn56      1.0  0.59751  0.41343  0.23224  1.0000
  O  Te53      1.0  0.60492  0.37840  0.29537  1.0000
  O  Te54      1.0  0.66193  0.45436  0.23222  1.0000
  O  Te55      1.0  0.63312  0.47593  0.16887  1.0000
  O  Te56      1.0  0.57610  0.39996  0.23205  1.0000
  Mg  Mg27      1.0  0.66377  0.48680  0.18256  1.0000
  Mg  Mg28      1.0  0.57425  0.36754  0.28171  1.0000
  C  Sn57      1.0  0.81432  0.54308  0.53208  1.0000
  C   C341      1.0  0.80320  0.52317  0.50124  1.0000
  C  Sn58      1.0  0.80642  0.53381  0.46097  1.0000
  C  Sn59      1.0  0.82108  0.56497  0.45133  1.0000
  C   C342      1.0  0.83220  0.58486  0.48216  1.0000
  C  Sn60      1.0  0.82898  0.57425  0.52244  1.0000
  O  Te57      1.0  0.81084  0.53195  0.57212  1.0000
  O  Te58      1.0  0.79511  0.51348  0.43066  1.0000
  O  Te59      1.0  0.82455  0.57609  0.41126  1.0000
  O  Te60      1.0  0.84028  0.59455  0.55274  1.0000
  Mg  Mg29      1.0  0.80536  0.53951  0.38066  1.0000
  Mg  Mg30      1.0  0.83006  0.56853  0.60275  1.0000
  C  Sn61      1.0  0.67887  0.45345  0.40472  1.0000
  C   C343      1.0  0.68583  0.42301  0.43025  1.0000
  C  Sn62      1.0  0.68492  0.38327  0.41761  1.0000
  C  Sn63      1.0  0.67691  0.37374  0.37862  1.0000
  C   C344      1.0  0.66996  0.40416  0.35311  1.0000
  C  Sn64      1.0  0.67085  0.44392  0.36573  1.0000
  O  Te61      1.0  0.67992  0.49297  0.41799  1.0000
  O  Te62      1.0  0.69196  0.35335  0.44367  1.0000
  O  Te63      1.0  0.67586  0.33417  0.36536  1.0000
  O  Te64      1.0  0.66382  0.47382  0.33969  1.0000
  Mg  Mg31      1.0  0.68735  0.30398  0.41183  1.0000
  Mg  Mg32      1.0  0.66844  0.52320  0.37149  1.0000
  C  Sn65      1.0  0.07311  0.81449  0.46904  1.0000
  C   C345      1.0  0.05592  0.82176  0.49539  1.0000
  C  Sn66      1.0  0.05550  0.80419  0.53353  1.0000
  C  Sn67      1.0  0.07263  0.77885  0.54559  1.0000
  C   C346      1.0  0.08980  0.77160  0.51924  1.0000
  C  Sn68      1.0  0.09023  0.78914  0.48110  1.0000
  O  Te65      1.0  0.07319  0.83236  0.43105  1.0000
  O  Te66      1.0  0.03814  0.81190  0.55934  1.0000
  O  Te67      1.0  0.07253  0.76097  0.58360  1.0000
  O  Te68      1.0  0.10758  0.78146  0.45529  1.0000
  Mg  Mg33      1.0  0.04535  0.78061  0.60803  1.0000
  Mg  Mg34      1.0  0.10039  0.81274  0.40661  1.0000
  C  Sn69      1.0  0.41747  0.47873  0.89738  1.0000
  C   C347      1.0  0.43562  0.45454  0.90248  1.0000
  C  Sn70      1.0  0.44418  0.43344  0.86981  1.0000
  C  Sn71      1.0  0.43440  0.43659  0.83123  1.0000
  C   C348      1.0  0.41626  0.46077  0.82614  1.0000
  C  Sn72      1.0  0.40769  0.48189  0.85880  1.0000
  O  Te69      1.0  0.40919  0.49957  0.93046  1.0000
  O  Te70      1.0  0.46233  0.40943  0.87566  1.0000
  O  Te71      1.0  0.44269  0.41573  0.79814  1.0000
  O  Te72      1.0  0.38956  0.50588  0.85297  1.0000
  Mg  Mg35      1.0  0.46766  0.38691  0.82128  1.0000
  Mg  Mg36      1.0  0.38422  0.52844  0.90732  1.0000
  C  Sn73      1.0  0.66482  0.45727  0.60901  1.0000
  C   C349      1.0  0.66513  0.42966  0.64046  1.0000
  C  Sn74      1.0  0.68203  0.40232  0.64368  1.0000
  C  Sn75      1.0  0.69899  0.40260  0.61486  1.0000
  C   C350      1.0  0.69867  0.43020  0.58344  1.0000
  C  Sn76      1.0  0.68178  0.45755  0.58020  1.0000
  O  Te73      1.0  0.64777  0.48433  0.60639  1.0000
  O  Te74      1.0  0.68198  0.37499  0.67538  1.0000
  O  Te75      1.0  0.71605  0.37551  0.61751  1.0000
  O  Te76      1.0  0.68182  0.48488  0.54852  1.0000
  Mg  Mg37      1.0  0.70877  0.34410  0.66611  1.0000
  Mg  Mg38      1.0  0.65506  0.51579  0.55778  1.0000
  C  Sn77      1.0  0.42829  0.60574  0.65211  1.0000
  C   C351      1.0  0.41129  0.57964  0.66103  1.0000
  C  Sn78      1.0  0.41123  0.54082  0.64564  1.0000
  C  Sn79      1.0  0.42852  0.52779  0.62082  1.0000
  C   C352      1.0  0.44551  0.55388  0.61192  1.0000
  C  Sn80      1.0  0.44559  0.59272  0.62730  1.0000
  O  Te77      1.0  0.42803  0.64442  0.66783  1.0000
  O  Te78      1.0  0.39405  0.51527  0.65496  1.0000
  O  Te79      1.0  0.42877  0.48908  0.60510  1.0000
  O  Te80      1.0  0.46275  0.61825  0.61799  1.0000
  Mg  Mg39      1.0  0.40173  0.46537  0.62638  1.0000
  Mg  Mg40      1.0  0.45509  0.66815  0.64657  1.0000
  C  Sn81      1.0  0.88410  0.71206  0.46659  1.0000
  C   C353      1.0  0.88989  0.73844  0.49755  1.0000
  C  Sn82      1.0  0.88513  0.72936  0.53768  1.0000
  C  Sn83      1.0  0.87437  0.69315  0.54706  1.0000
  C   C354      1.0  0.86859  0.66679  0.51612  1.0000
  C  Sn84      1.0  0.87334  0.67585  0.47598  1.0000
  O  Te81      1.0  0.88903  0.72175  0.42669  1.0000
  O  Te82      1.0  0.89107  0.75621  0.56810  1.0000
  O  Te83      1.0  0.86945  0.68348  0.58700  1.0000
  O  Te84      1.0  0.86741  0.64902  0.44557  1.0000
  Mg  Mg41      1.0  0.88085  0.72965  0.61784  1.0000
  Mg  Mg42      1.0  0.87763  0.67553  0.39582  1.0000
  C  Sn85      1.0  0.82878  0.45315  0.95006  1.0000
  C   C355      1.0  0.83705  0.43023  0.98160  1.0000
  C  Sn86      1.0  0.82882  0.43138  0.02088  1.0000
  C  Sn87      1.0  0.81250  0.45996  0.02881  1.0000
  C   C356      1.0  0.80476  0.48680  0.99729  1.0000
  C  Sn88      1.0  0.81246  0.48174  0.95800  1.0000
  O  Te85      1.0  0.83673  0.44756  0.91102  1.0000
  O  Te86      1.0  0.83733  0.40812  0.05191  1.0000
  O  Te87      1.0  0.80456  0.46554  0.06789  1.0000
  O  Te88      1.0  0.80395  0.50497  0.92698  1.0000
  Mg  Mg43      1.0  0.82126  0.42671  0.10004  1.0000
  Mg  Mg44      1.0  0.82000  0.48639  0.87883  1.0000
  C  Sn89      1.0  0.62684  0.55038  0.29327  1.0000
  C   C357      1.0  0.60426  0.54895  0.29519  1.0000
  C  Sn90      1.0  0.59211  0.53924  0.26095  1.0000
  C  Sn91      1.0  0.60276  0.53074  0.22402  1.0000
  C   C358      1.0  0.62532  0.53216  0.22212  1.0000
  C  Sn92      1.0  0.63748  0.54188  0.25635  1.0000
  O  Te89      1.0  0.63866  0.56016  0.32788  1.0000
  O  Te90      1.0  0.56956  0.53801  0.26360  1.0000
  O  Te91      1.0  0.59092  0.52096  0.18940  1.0000
  O  Te92      1.0  0.66003  0.54310  0.25371  1.0000
  Mg  Mg45      1.0  0.56055  0.52316  0.20818  1.0000
  Mg  Mg46      1.0  0.66905  0.55792  0.30911  1.0000
  C  Sn93      1.0  0.07661  0.07779  0.53742  1.0000
  C   C359      1.0  0.08931  0.09151  0.50544  1.0000
  C  Sn94      1.0  0.08391  0.08171  0.46567  1.0000
  C  Sn95      1.0  0.06543  0.05772  0.45769  1.0000
  C   C360      1.0  0.05275  0.04402  0.48966  1.0000
  C  Sn96      1.0  0.05814  0.05380  0.52944  1.0000
  O  Te93      1.0  0.08231  0.08795  0.57694  1.0000
  O  Te94      1.0  0.09685  0.09577  0.43420  1.0000
  O  Te95      1.0  0.05975  0.04756  0.41813  1.0000
  O  Te96      1.0  0.04520  0.03976  0.56089  1.0000
  Mg  Mg47      1.0  0.08244  0.07390  0.38550  1.0000
  Mg  Mg48      1.0  0.05960  0.06163  0.60960  1.0000
