data_image0
_chemical_formula_structural       H120C204N72C2Sn2C2HTe2HMgC2Sn2C2HTe2HMgC2Sn2C2HTe2HMgC2Sn2C2HTe2HMgC2Sn2C2HTe2HMgC2Sn2C2HTe2HMgC2Sn2C2HTe2HMgC2Sn2C2HTe2HMgC2Sn2C2HTe2HMgC2Sn2C2HTe2HMgC2Sn2C2HTe2HMgC2Sn2C2HTe2HMgC2Sn2C2HTe2HMgC2Sn2C2HTe2HMgC2Sn2C2HTe2HMgC2Sn2C2HTe2HMgC2Sn2C2HTe2HMgC2Sn2C2HTe2HMgC2Sn2C2HTe2HMgC2Sn2C2HTe2HMgC2Sn2C2HTe2HMgC2Sn2C2HTe2HMgC2Sn2C2HTe2HMgC2Sn2C2HTe2HMgC2Sn2C2HTe2HMgC2Sn2C2HTe2HMgC2Sn2C2HTe2HMgC2Sn2C2HTe2HMgC2Sn2C2HTe2HMgC2Sn2C2HTe2HMgC2Sn2C2HTe2HMgC2Sn2C2HTe2HMgC2Sn2C2HTe2HMgC2Sn2C2HTe2HMgC2Sn2C2HTe2HMgC2Sn2C2HTe2HMgC2Sn2C2HTe2HMgC2Sn2C2HTe2HMgC2Sn2C2HTe2HMgC2Sn2C2HTe2HMgC2Sn2C2HTe2HMgC2Sn2C2HTe2HMgC2Sn2C2HTe2HMgC2Sn2C2HTe2HMgC2Sn2C2HTe2HMgC2Sn2C2HTe2HMgC2Sn2C2HTe2HMgC2Sn2C2HTe2HMgC2Sn2C2HTe2HMgC2Sn2C2HTe2HMgC2Sn2C2HTe2HMgC2Sn2C2HTe2HMgC2Sn2C2HTe2HMgC2Sn2C2HTe2HMgC2Sn2C2HTe2HMgC2Sn2C2HTe2HMgC2Sn2C2HTe2HMgC2Sn2C2HTe2HMgC2Sn2C2HTe2HMgC2Sn2C2HTe2HMgC2Sn2C2HTe2HMgC2Sn2C2HTe2HMgC2Sn2C2HTe2HMgC2Sn2C2HTe2HMgC2Sn2C2HTe2HMgC2Sn2C2HTe2HMgC2Sn2C2HTe2HMgC2Sn2C2HTe2HMgC2Sn2C2HTe2HMgC2Sn2C2HTe2HMgC2Sn2C2HTe2HMgC2Sn2C2HTe2HMg
_chemical_formula_sum              "H264 C492 N72 Sn144 Te144 Mg72"
_cell_length_a       69.1783
_cell_length_b       69.3234
_cell_length_c       9.38135
_cell_angle_alpha    121.047
_cell_angle_beta     54.8252
_cell_angle_gamma    120.133

_symmetry_space_group_name_H-M    'P1'
_space_group_IT_number       1

loop_
  _space_group_symop_operation_xyz
  'x, y, z'

loop_
  _atom_site_type_symbol
  _atom_site_label
  _atom_site_symmetry_multiplicity
  _atom_site_fract_x
  _atom_site_fract_y
  _atom_site_fract_z
  _atom_site_occupancy
  H   H1        1.0  0.18836  0.45769  0.04844  1.0000
  H   H2        1.0  0.53734  0.73586  0.06777  1.0000
  H   H3        1.0  0.26084  0.81217  0.08030  1.0000
  H   H4        1.0  0.80256  0.54644  0.09336  1.0000
  H   H5        1.0  0.45958  0.26228  0.93372  1.0000
  H   H6        1.0  0.73716  0.18706  0.92744  1.0000
  H   H7        1.0  0.22749  0.38182  0.98598  1.0000
  H   H8        1.0  0.61791  0.84057  0.96429  1.0000
  H   H9        1.0  0.15489  0.76989  0.99060  1.0000
  H   H10       1.0  0.77310  0.61474  0.97988  1.0000
  H   H11       1.0  0.38280  0.15429  0.98149  1.0000
  H   H12       1.0  0.84412  0.22598  0.98331  1.0000
  H   H13       1.0  0.16588  0.31912  0.05670  1.0000
  H   H14       1.0  0.67947  0.85241  0.03511  1.0000
  H   H15       1.0  0.14688  0.82943  0.01587  1.0000
  H   H16       1.0  0.83011  0.68117  0.00074  1.0000
  H   H17       1.0  0.31596  0.14652  0.99575  1.0000
  H   H18       1.0  0.85114  0.16719  0.98018  1.0000
  H   H19       1.0  0.26845  0.45821  0.93099  1.0000
  H   H20       1.0  0.54397  0.79477  0.87749  1.0000
  H   H21       1.0  0.20124  0.73219  0.97107  1.0000
  H   H22       1.0  0.73812  0.53227  0.93581  1.0000
  H   H23       1.0  0.45701  0.19979  0.07490  1.0000
  H   H24       1.0  0.80021  0.26505  0.01225  1.0000
  H   H25       1.0  0.17613  0.40870  0.00702  1.0000
  H   H26       1.0  0.58214  0.77186  0.10267  1.0000
  H   H27       1.0  0.22511  0.82358  0.08957  1.0000
  H   H28       1.0  0.81411  0.59370  0.10549  1.0000
  H   H29       1.0  0.41487  0.22620  0.89696  1.0000
  H   H30       1.0  0.77145  0.17407  0.92574  1.0000
  H   H31       1.0  0.16185  0.37321  0.98915  1.0000
  H   H32       1.0  0.62282  0.78607  0.01966  1.0000
  H   H33       1.0  0.21125  0.83638  0.02527  1.0000
  H   H34       1.0  0.83680  0.62358  0.00669  1.0000
  H   H35       1.0  0.37453  0.21155  0.98506  1.0000
  H   H36       1.0  0.78541  0.16174  0.99742  1.0000
  H   H37       1.0  0.75564  0.33798  0.07183  1.0000
  H   H38       1.0  0.67075  0.41848  0.91408  1.0000
  H   H39       1.0  0.57465  0.24607  0.02386  1.0000
  H   H40       1.0  0.24598  0.65664  0.85051  1.0000
  H   H41       1.0  0.33406  0.57275  0.98337  1.0000
  H   H42       1.0  0.41907  0.76052  0.08076  1.0000
  H   H43       1.0  0.81820  0.44936  0.88863  1.0000
  H   H44       1.0  0.53974  0.35967  0.10119  1.0000
  H   H45       1.0  0.63518  0.19257  0.10677  1.0000
  H   H46       1.0  0.18707  0.54158  0.97500  1.0000
  H   H47       1.0  0.45986  0.63772  0.92558  1.0000
  H   H48       1.0  0.36504  0.81423  0.91698  1.0000
  H   H49       1.0  0.26824  0.21016  0.01103  1.0000
  H   H50       1.0  0.78670  0.05912  0.99260  1.0000
  H   H51       1.0  0.94257  0.72539  0.93061  1.0000
  H   H52       1.0  0.72713  0.79014  0.03576  1.0000
  H   H53       1.0  0.21294  0.93640  0.96869  1.0000
  H   H54       1.0  0.05548  0.27230  0.06706  1.0000
  H   H55       1.0  0.27388  0.31759  0.98156  1.0000
  H   H56       1.0  0.67708  0.95460  0.05734  1.0000
  H   H57       1.0  0.05446  0.73065  0.83794  1.0000
  H   H58       1.0  0.72513  0.67934  0.00987  1.0000
  H   H59       1.0  0.31067  0.05124  0.12046  1.0000
  H   H60       1.0  0.95392  0.27135  0.97867  1.0000
  H   H61       1.0  0.19802  0.45382  0.41105  1.0000
  H   H62       1.0  0.54793  0.73377  0.45229  1.0000
  H   H63       1.0  0.26552  0.80682  0.49652  1.0000
  H   H64       1.0  0.81108  0.54233  0.45207  1.0000
  H   H65       1.0  0.45179  0.26946  0.58803  1.0000
  H   H66       1.0  0.73529  0.19184  0.49343  1.0000
  H   H67       1.0  0.22814  0.38372  0.50325  1.0000
  H   H68       1.0  0.61782  0.84546  0.49777  1.0000
  H   H69       1.0  0.15602  0.77133  0.48019  1.0000
  H   H70       1.0  0.77294  0.61800  0.49723  1.0000
  H   H71       1.0  0.38364  0.15689  0.50147  1.0000
  H   H72       1.0  0.84558  0.22856  0.49739  1.0000
  H   H73       1.0  0.16828  0.31948  0.53113  1.0000
  H   H74       1.0  0.68126  0.85625  0.54517  1.0000
  H   H75       1.0  0.15269  0.83002  0.46062  1.0000
  H   H76       1.0  0.82983  0.68455  0.51387  1.0000
  H   H77       1.0  0.31583  0.15067  0.53756  1.0000
  H   H78       1.0  0.84805  0.17128  0.54658  1.0000
  H   H79       1.0  0.26234  0.46632  0.56489  1.0000
  H   H80       1.0  0.53674  0.80438  0.52268  1.0000
  H   H81       1.0  0.19472  0.73323  0.52494  1.0000
  H   H82       1.0  0.73055  0.54160  0.57521  1.0000
  H   H83       1.0  0.46828  0.19640  0.42634  1.0000
  H   H84       1.0  0.80647  0.26476  0.44090  1.0000
  H   H85       1.0  0.18709  0.40575  0.38422  1.0000
  H   H86       1.0  0.59261  0.76942  0.49162  1.0000
  H   H87       1.0  0.23168  0.82087  0.51063  1.0000
  H   H88       1.0  0.82343  0.59087  0.48785  1.0000
  H   H89       1.0  0.40657  0.23402  0.54849  1.0000
  H   H90       1.0  0.76832  0.18006  0.51116  1.0000
  H   H91       1.0  0.16476  0.37478  0.47013  1.0000
  H   H92       1.0  0.62715  0.78886  0.49146  1.0000
  H   H93       1.0  0.21014  0.83847  0.56178  1.0000
  H   H94       1.0  0.83902  0.62567  0.48603  1.0000
  H   H95       1.0  0.37842  0.21113  0.44522  1.0000
  H   H96       1.0  0.78983  0.16200  0.45518  1.0000
  H   H97       1.0  0.76114  0.33301  0.44396  1.0000
  H   H98       1.0  0.65577  0.43326  0.63212  1.0000
  H   H99       1.0  0.57843  0.24339  0.47991  1.0000
  H   H100      1.0  0.23468  0.66817  0.59656  1.0000
  H   H101      1.0  0.32827  0.58111  0.61830  1.0000
  H   H102      1.0  0.41934  0.76348  0.60745  1.0000
  H   H103      1.0  0.80825  0.45820  0.56404  1.0000
  H   H104      1.0  0.55182  0.35361  0.39900  1.0000
  H   H105      1.0  0.64362  0.18518  0.47055  1.0000
  H   H106      1.0  0.18328  0.55326  0.64743  1.0000
  H   H107      1.0  0.44654  0.65094  0.63832  1.0000
  H   H108      1.0  0.35411  0.81125  0.54967  1.0000
  H   H109      1.0  0.27549  0.20918  0.43746  1.0000
  H   H110      1.0  0.79134  0.05784  0.40021  1.0000
  H   H111      1.0  0.94569  0.72468  0.40138  1.0000
  H   H112      1.0  0.73104  0.79124  0.49031  1.0000
  H   H113      1.0  0.21100  0.94165  0.55515  1.0000
  H   H114      1.0  0.06311  0.26936  0.46933  1.0000
  H   H115      1.0  0.27588  0.31586  0.44099  1.0000
  H   H116      1.0  0.68362  0.95149  0.42531  1.0000
  H   H117      1.0  0.05333  0.72835  0.37421  1.0000
  H   H118      1.0  0.72521  0.68539  0.55116  1.0000
  H   H119      1.0  0.32032  0.04867  0.52518  1.0000
  H   H120      1.0  0.95161  0.27389  0.56234  1.0000
  C   C1        1.0  0.20607  0.45792  0.01902  1.0000
  C   C2        1.0  0.53887  0.74860  0.02478  1.0000
  C   C3        1.0  0.24806  0.79464  0.05609  1.0000
  C   C4        1.0  0.78894  0.54289  0.05298  1.0000
  C   C5        1.0  0.45904  0.24875  0.96561  1.0000
  C   C6        1.0  0.75076  0.20413  0.94620  1.0000
  C   C7        1.0  0.20898  0.43794  0.99538  1.0000
  C   C8        1.0  0.55915  0.76843  0.00468  1.0000
  C   C9        1.0  0.22741  0.79114  0.04449  1.0000
  C   C10       1.0  0.78787  0.56077  0.03325  1.0000
  C   C11       1.0  0.43933  0.22834  0.97852  1.0000
  C   C12       1.0  0.77126  0.20678  0.95525  1.0000
  C   C13       1.0  0.24876  0.47918  0.98337  1.0000
  C   C14       1.0  0.51993  0.76341  0.95826  1.0000
  C   C15       1.0  0.23438  0.75252  0.01646  1.0000
  C   C16       1.0  0.75232  0.51691  0.99427  1.0000
  C   C17       1.0  0.47904  0.23263  0.01261  1.0000
  C   C18       1.0  0.76645  0.24609  0.97379  1.0000
  C   C19       1.0  0.20891  0.37096  0.99979  1.0000
  C   C20       1.0  0.62778  0.83507  0.98716  1.0000
  C   C21       1.0  0.16172  0.78828  0.99988  1.0000
  C   C22       1.0  0.79054  0.62626  0.98782  1.0000
  C   C23       1.0  0.37135  0.16101  0.98444  1.0000
  C   C24       1.0  0.83734  0.20811  0.98467  1.0000
  C   C25       1.0  0.19858  0.34877  0.02091  1.0000
  C   C26       1.0  0.65019  0.84973  0.00028  1.0000
  C   C27       1.0  0.14821  0.79839  0.00382  1.0000
  C   C28       1.0  0.79971  0.64956  0.98990  1.0000
  C   C29       1.0  0.34785  0.14730  0.98959  1.0000
  C   C30       1.0  0.85081  0.19869  0.98870  1.0000
  C   C31       1.0  0.20643  0.40346  0.97884  1.0000
  C   C32       1.0  0.59419  0.79788  0.98577  1.0000
  C   C33       1.0  0.19768  0.79213  0.02008  1.0000
  C   C34       1.0  0.79278  0.59303  0.00266  1.0000
  C   C35       1.0  0.40491  0.19843  0.99042  1.0000
  C   C36       1.0  0.80083  0.20495  0.97604  1.0000
  C   C37       1.0  0.19541  0.37998  0.99306  1.0000
  C   C38       1.0  0.61775  0.81236  0.99832  1.0000
  C   C39       1.0  0.18420  0.80223  0.01362  1.0000
  C   C40       1.0  0.80358  0.61709  0.99814  1.0000
  C   C41       1.0  0.38090  0.18418  0.98348  1.0000
  C   C42       1.0  0.81406  0.19465  0.98332  1.0000
  C   C43       1.0  0.17429  0.33611  0.03743  1.0000
  C   C44       1.0  0.66254  0.84081  0.02012  1.0000
  C   C45       1.0  0.15760  0.82225  0.01646  1.0000
  C   C46       1.0  0.82269  0.66309  0.99741  1.0000
  C   C47       1.0  0.33442  0.15703  0.98767  1.0000
  C   C48       1.0  0.84055  0.17510  0.98534  1.0000
  C   C49       1.0  0.23148  0.43792  0.96450  1.0000
  C   C50       1.0  0.56143  0.78484  0.94564  1.0000
  C   C51       1.0  0.21021  0.76863  0.01386  1.0000
  C   C52       1.0  0.77007  0.55711  0.98444  1.0000
  C   C53       1.0  0.43817  0.21078  0.02078  1.0000
  C   C54       1.0  0.78933  0.22883  0.97834  1.0000
  C   C55       1.0  0.25114  0.45842  0.95674  1.0000
  C   C56       1.0  0.54196  0.78195  0.92152  1.0000
  C   C57       1.0  0.21382  0.74969  0.00180  1.0000
  C   C58       1.0  0.75207  0.53529  0.97106  1.0000
  C   C59       1.0  0.45796  0.21308  0.03927  1.0000
  C   C60       1.0  0.78678  0.24802  0.98589  1.0000
  C   C61       1.0  0.22587  0.47885  0.00888  1.0000
  C   C62       1.0  0.51926  0.74540  0.99781  1.0000
  C   C63       1.0  0.25261  0.77541  0.03531  1.0000
  C   C64       1.0  0.77223  0.52017  0.02429  1.0000
  C   C65       1.0  0.47886  0.25134  0.98604  1.0000
  C   C66       1.0  0.74742  0.22368  0.96096  1.0000
  C   C67       1.0  0.16063  0.34424  0.02405  1.0000
  C   C68       1.0  0.65360  0.81766  0.02205  1.0000
  C   C69       1.0  0.18060  0.83640  0.02184  1.0000
  C   C70       1.0  0.83652  0.65427  0.00288  1.0000
  C   C71       1.0  0.34375  0.17996  0.98148  1.0000
  C   C72       1.0  0.81704  0.16132  0.98825  1.0000
  C   C73       1.0  0.17168  0.36651  0.00280  1.0000
  C   C74       1.0  0.63059  0.80385  0.01591  1.0000
  C   C75       1.0  0.19342  0.82587  0.02187  1.0000
  C   C76       1.0  0.82652  0.63100  0.00403  1.0000
  C   C77       1.0  0.36712  0.19342  0.98156  1.0000
  C   C78       1.0  0.80391  0.17165  0.98942  1.0000
  C   C79       1.0  0.77341  0.33670  0.03278  1.0000
  C   C80       1.0  0.66686  0.43531  0.97332  1.0000
  C   C81       1.0  0.56170  0.22852  0.99516  1.0000
  C   C82       1.0  0.22830  0.66096  0.93709  1.0000
  C   C83       1.0  0.33531  0.55875  0.99816  1.0000
  C   C84       1.0  0.43583  0.77528  0.04773  1.0000
  C   C85       1.0  0.79822  0.44730  0.95497  1.0000
  C   C86       1.0  0.54790  0.34510  0.02696  1.0000
  C   C87       1.0  0.65094  0.20570  0.03948  1.0000
  C   C88       1.0  0.20247  0.54889  0.01216  1.0000
  C   C89       1.0  0.45174  0.65169  0.98281  1.0000
  C   C90       1.0  0.35027  0.79955  0.96916  1.0000
  C   C91       1.0  0.28767  0.22042  0.98557  1.0000
  C   C92       1.0  0.77514  0.06509  0.98691  1.0000
  C   C93       1.0  0.93445  0.70984  0.97358  1.0000
  C   C94       1.0  0.70980  0.77795  0.02286  1.0000
  C   C95       1.0  0.22268  0.93175  0.00184  1.0000
  C   C96       1.0  0.06482  0.28758  0.01896  1.0000
  C   C97       1.0  0.25507  0.30664  0.99227  1.0000
  C   C98       1.0  0.69060  0.94600  0.00652  1.0000
  C   C99       1.0  0.05610  0.74849  0.93740  1.0000
  C   C100      1.0  0.74390  0.69044  0.99815  1.0000
  C   C101      1.0  0.30450  0.05420  0.04983  1.0000
  C   C102      1.0  0.94647  0.25451  0.00184  1.0000
  C   C103      1.0  0.21177  0.45679  0.44778  1.0000
  C   C104      1.0  0.54528  0.74902  0.46749  1.0000
  C   C105      1.0  0.24989  0.79107  0.51144  1.0000
  C   C106      1.0  0.79325  0.54209  0.48325  1.0000
  C   C107      1.0  0.45536  0.25364  0.55292  1.0000
  C   C108      1.0  0.75108  0.20747  0.47512  1.0000
  C   C109      1.0  0.21321  0.43841  0.45895  1.0000
  C   C110      1.0  0.56355  0.77048  0.47512  1.0000
  C   C111      1.0  0.22839  0.78926  0.51888  1.0000
  C   C112      1.0  0.79055  0.56173  0.49998  1.0000
  C   C113      1.0  0.43815  0.23182  0.52708  1.0000
  C   C114      1.0  0.77249  0.20978  0.46993  1.0000
  C   C115      1.0  0.24791  0.48263  0.51562  1.0000
  C   C116      1.0  0.52017  0.76736  0.49471  1.0000
  C   C117      1.0  0.23184  0.74997  0.50868  1.0000
  C   C118      1.0  0.75003  0.52121  0.53098  1.0000
  C   C119      1.0  0.48235  0.23443  0.49599  1.0000
  C   C120      1.0  0.76897  0.24810  0.46777  1.0000
  C   C121      1.0  0.21030  0.37249  0.50113  1.0000
  C   C122      1.0  0.62895  0.83959  0.50553  1.0000
  C   C123      1.0  0.16322  0.78967  0.48784  1.0000
  C   C124      1.0  0.79079  0.62929  0.49946  1.0000
  C   C125      1.0  0.37243  0.16316  0.49803  1.0000
  C   C126      1.0  0.83831  0.21075  0.50051  1.0000
  C   C127      1.0  0.20025  0.34981  0.51222  1.0000
  C   C128      1.0  0.65131  0.85424  0.51930  1.0000
  C   C129      1.0  0.15087  0.79964  0.47828  1.0000
  C   C130      1.0  0.80010  0.65248  0.49877  1.0000
  C   C131      1.0  0.34844  0.14973  0.51052  1.0000
  C   C132      1.0  0.85093  0.20156  0.51492  1.0000
  C   C133      1.0  0.20876  0.40546  0.47796  1.0000
  C   C134      1.0  0.59633  0.80190  0.49065  1.0000
  C   C135      1.0  0.19792  0.79291  0.52090  1.0000
  C   C136      1.0  0.79349  0.59598  0.51003  1.0000
  C   C137      1.0  0.40704  0.19973  0.48553  1.0000
  C   C138      1.0  0.80304  0.20723  0.47379  1.0000
  C   C139      1.0  0.19754  0.38159  0.48715  1.0000
  C   C140      1.0  0.62001  0.81620  0.49964  1.0000
  C   C141      1.0  0.18495  0.80346  0.51333  1.0000
  C   C142      1.0  0.80436  0.61974  0.50103  1.0000
  C   C143      1.0  0.38282  0.18571  0.48335  1.0000
  C   C144      1.0  0.81580  0.19704  0.48662  1.0000
  C   C145      1.0  0.17648  0.33681  0.51746  1.0000
  C   C146      1.0  0.66426  0.84501  0.53065  1.0000
  C   C147      1.0  0.16147  0.82323  0.48310  1.0000
  C   C148      1.0  0.82330  0.66614  0.50294  1.0000
  C   C149      1.0  0.33499  0.16003  0.51428  1.0000
  C   C150      1.0  0.83992  0.17835  0.52040  1.0000
  C   C151      1.0  0.23108  0.44167  0.50497  1.0000
  C   C152      1.0  0.56088  0.79066  0.49306  1.0000
  C   C153      1.0  0.20847  0.76831  0.52055  1.0000
  C   C154      1.0  0.76798  0.56186  0.53242  1.0000
  C   C155      1.0  0.44266  0.21108  0.48069  1.0000
  C   C156      1.0  0.79279  0.23050  0.45895  1.0000
  C   C157      1.0  0.24855  0.46368  0.52949  1.0000
  C   C158      1.0  0.53913  0.78879  0.50343  1.0000
  C   C159      1.0  0.21040  0.74898  0.51673  1.0000
  C   C160      1.0  0.74801  0.54160  0.54853  1.0000
  C   C161      1.0  0.46461  0.21244  0.46531  1.0000
  C   C162      1.0  0.79076  0.24918  0.45522  1.0000
  C   C163      1.0  0.22812  0.47949  0.48429  1.0000
  C   C164      1.0  0.52299  0.74705  0.48098  1.0000
  C   C165      1.0  0.25209  0.77160  0.50791  1.0000
  C   C166      1.0  0.77304  0.52157  0.50336  1.0000
  C   C167      1.0  0.47794  0.25531  0.53267  1.0000
  C   C168      1.0  0.74893  0.22641  0.47176  1.0000
  C   C169      1.0  0.16335  0.34541  0.50279  1.0000
  C   C170      1.0  0.65603  0.82133  0.51981  1.0000
  C   C171      1.0  0.18317  0.83750  0.50898  1.0000
  C   C172      1.0  0.83773  0.65686  0.49798  1.0000
  C   C173      1.0  0.34524  0.18215  0.49273  1.0000
  C   C174      1.0  0.81786  0.16402  0.50093  1.0000
  C   C175      1.0  0.17427  0.36794  0.48588  1.0000
  C   C176      1.0  0.63376  0.80720  0.50304  1.0000
  C   C177      1.0  0.19438  0.82742  0.52884  1.0000
  C   C178      1.0  0.82801  0.63336  0.49376  1.0000
  C   C179      1.0  0.36960  0.19465  0.47336  1.0000
  C   C180      1.0  0.80608  0.17355  0.48168  1.0000
  C   C181      1.0  0.77372  0.33574  0.49385  1.0000
  C   C182      1.0  0.66075  0.44326  0.54874  1.0000
  C   C183      1.0  0.56325  0.22687  0.48409  1.0000
  C   C184      1.0  0.22326  0.66458  0.53439  1.0000
  C   C185      1.0  0.33263  0.56435  0.55216  1.0000
  C   C186      1.0  0.43733  0.77501  0.53739  1.0000
  C   C187      1.0  0.79256  0.45173  0.53270  1.0000
  C   C188      1.0  0.55149  0.34570  0.47767  1.0000
  C   C189      1.0  0.65353  0.20386  0.51337  1.0000
  C   C190      1.0  0.20295  0.55418  0.57602  1.0000
  C   C191      1.0  0.44814  0.65771  0.54671  1.0000
  C   C192      1.0  0.34603  0.79258  0.48671  1.0000
  C   C193      1.0  0.29246  0.22151  0.45583  1.0000
  C   C194      1.0  0.77782  0.06650  0.45304  1.0000
  C   C195      1.0  0.93612  0.71040  0.46098  1.0000
  C   C196      1.0  0.71228  0.78000  0.50341  1.0000
  C   C197      1.0  0.22405  0.93469  0.53294  1.0000
  C   C198      1.0  0.06764  0.28816  0.49564  1.0000
  C   C199      1.0  0.25572  0.30737  0.49283  1.0000
  C   C200      1.0  0.69325  0.94730  0.46244  1.0000
  C   C201      1.0  0.05651  0.74744  0.44454  1.0000
  C   C202      1.0  0.74504  0.69472  0.51312  1.0000
  C   C203      1.0  0.30889  0.05396  0.51383  1.0000
  C   C204      1.0  0.94660  0.25467  0.52396  1.0000
  N   N1        1.0  0.22951  0.41648  0.95520  1.0000
  N   N2        1.0  0.58353  0.80276  0.93161  1.0000
  N   N3        1.0  0.19187  0.76974  0.99998  1.0000
  N   N4        1.0  0.77359  0.57733  0.96497  1.0000
  N   N5        1.0  0.41645  0.19262  0.02970  1.0000
  N   N6        1.0  0.80746  0.22719  0.99072  1.0000
  N   N7        1.0  0.19315  0.41569  0.00409  1.0000
  N   N8        1.0  0.58044  0.77680  0.02622  1.0000
  N   N9        1.0  0.21912  0.80582  0.04738  1.0000
  N   N10       1.0  0.80236  0.58395  0.04405  1.0000
  N   N11       1.0  0.41778  0.22010  0.95827  1.0000
  N   N12       1.0  0.77897  0.19173  0.95347  1.0000
  N   N13       1.0  0.79363  0.35362  0.99233  1.0000
  N   N14       1.0  0.64521  0.43575  0.02414  1.0000
  N   N15       1.0  0.56436  0.21027  0.97986  1.0000
  N   N16       1.0  0.20811  0.64643  0.01633  1.0000
  N   N17       1.0  0.35413  0.56084  0.00935  1.0000
  N   N18       1.0  0.43642  0.79231  0.02290  1.0000
  N   N19       1.0  0.78154  0.43043  0.02201  1.0000
  N   N20       1.0  0.57096  0.34853  0.97226  1.0000
  N   N21       1.0  0.64868  0.21839  0.98955  1.0000
  N   N22       1.0  0.21593  0.57067  0.03641  1.0000
  N   N23       1.0  0.42896  0.64755  0.02462  1.0000
  N   N24       1.0  0.35363  0.78631  0.00655  1.0000
  N   N25       1.0  0.29748  0.24090  0.96681  1.0000
  N   N26       1.0  0.75427  0.05151  0.97700  1.0000
  N   N27       1.0  0.94589  0.70433  0.01177  1.0000
  N   N28       1.0  0.70204  0.75600  0.00876  1.0000
  N   N29       1.0  0.24238  0.94617  0.02758  1.0000
  N   N30       1.0  0.05484  0.29371  0.97310  1.0000
  N   N31       1.0  0.24602  0.28514  0.99116  1.0000
  N   N32       1.0  0.71388  0.95723  0.96224  1.0000
  N   N33       1.0  0.03864  0.75824  0.02731  1.0000
  N   N34       1.0  0.75313  0.71154  0.99027  1.0000
  N   N35       1.0  0.28736  0.03863  0.99510  1.0000
  N   N36       1.0  0.95827  0.24670  0.01891  1.0000
  N   N37       1.0  0.22790  0.42104  0.51629  1.0000
  N   N38       1.0  0.58144  0.80987  0.50100  1.0000
  N   N39       1.0  0.18973  0.77099  0.52252  1.0000
  N   N40       1.0  0.77024  0.58318  0.53742  1.0000
  N   N41       1.0  0.42293  0.19164  0.45774  1.0000
  N   N42       1.0  0.81159  0.22847  0.46067  1.0000
  N   N43       1.0  0.19913  0.41509  0.44184  1.0000
  N   N44       1.0  0.58665  0.77795  0.46975  1.0000
  N   N45       1.0  0.22105  0.80449  0.52047  1.0000
  N   N46       1.0  0.80678  0.58369  0.48470  1.0000
  N   N47       1.0  0.41510  0.22426  0.52997  1.0000
  N   N48       1.0  0.77960  0.19500  0.47688  1.0000
  N   N49       1.0  0.78837  0.35640  0.53900  1.0000
  N   N50       1.0  0.64722  0.43726  0.47059  1.0000
  N   N51       1.0  0.56402  0.20928  0.49257  1.0000
  N   N52       1.0  0.20929  0.64360  0.48501  1.0000
  N   N53       1.0  0.35459  0.56382  0.49045  1.0000
  N   N54       1.0  0.43871  0.78872  0.47517  1.0000
  N   N55       1.0  0.77742  0.43068  0.52623  1.0000
  N   N56       1.0  0.56808  0.35406  0.53398  1.0000
  N   N57       1.0  0.64678  0.22033  0.54206  1.0000
  N   N58       1.0  0.22037  0.57064  0.50764  1.0000
  N   N59       1.0  0.43357  0.64778  0.46850  1.0000
  N   N60       1.0  0.35490  0.77612  0.43426  1.0000
  N   N61       1.0  0.30016  0.24351  0.47224  1.0000
  N   N62       1.0  0.75471  0.05528  0.49343  1.0000
  N   N63       1.0  0.94615  0.70542  0.51468  1.0000
  N   N64       1.0  0.70330  0.75889  0.51004  1.0000
  N   N65       1.0  0.24629  0.94717  0.51657  1.0000
  N   N66       1.0  0.05343  0.29678  0.51141  1.0000
  N   N67       1.0  0.24571  0.28799  0.52873  1.0000
  N   N68       1.0  0.71318  0.96154  0.48533  1.0000
  N   N69       1.0  0.04005  0.75755  0.51463  1.0000
  N   N70       1.0  0.75509  0.71473  0.48619  1.0000
  N   N71       1.0  0.28800  0.04028  0.50621  1.0000
  N   N72       1.0  0.96075  0.24447  0.49063  1.0000
  C   C205      1.0  0.19715  0.50153  0.93652  1.0000
  C   C206      1.0  0.25960  0.48477  0.02881  1.0000
  C  Sn1       1.0  0.27543  0.49605  0.11391  1.0000
  C  Sn2       1.0  0.28650  0.48278  0.10620  1.0000
  C   C207      1.0  0.28145  0.45855  0.01341  1.0000
  C   C208      1.0  0.20807  0.48842  0.92878  1.0000
  H   H121      1.0  0.18488  0.49293  0.87094  1.0000
  O  Te1       1.0  0.28016  0.52028  0.20560  1.0000
  O  Te2       1.0  0.30240  0.49361  0.19000  1.0000
  H   H122      1.0  0.20426  0.46966  0.85723  1.0000
  Mg  Mg1       1.0  0.30310  0.52704  0.29847  1.0000
  C   C209      1.0  0.50891  0.69606  0.89306  1.0000
  C   C210      1.0  0.50310  0.71686  0.96650  1.0000
  C  Sn3       1.0  0.53600  0.67621  0.07323  1.0000
  C  Sn4       1.0  0.51690  0.65532  0.10685  1.0000
  C   C211      1.0  0.52290  0.63460  0.03287  1.0000
  C   C212      1.0  0.49008  0.67544  0.92622  1.0000
  H   H123      1.0  0.52800  0.69595  0.81063  1.0000
  O  Te3       1.0  0.53053  0.69714  0.14550  1.0000
  O  Te4       1.0  0.49216  0.65517  0.21309  1.0000
  H   H124      1.0  0.49457  0.65934  0.86948  1.0000
  Mg  Mg2       1.0  0.49402  0.68807  0.28162  1.0000
  C   C213      1.0  0.28676  0.76889  0.08656  1.0000
  C   C214      1.0  0.27746  0.77976  0.05772  1.0000
  C  Sn5       1.0  0.23580  0.83904  0.98190  1.0000
  C  Sn6       1.0  0.26143  0.84654  0.93415  1.0000
  C   C215      1.0  0.27055  0.83554  0.96342  1.0000
  C   C216      1.0  0.31203  0.77627  0.03944  1.0000
  H   H125      1.0  0.27436  0.75473  0.14528  1.0000
  O  Te5       1.0  0.22620  0.84972  0.95407  1.0000
  O  Te6       1.0  0.27768  0.86477  0.85808  1.0000
  H   H126      1.0  0.31923  0.76784  0.06164  1.0000
  Mg  Mg3       1.0  0.25576  0.87383  0.84654  1.0000
  C   C217      1.0  0.81134  0.49187  0.92854  1.0000
  C   C218      1.0  0.79622  0.47147  0.97900  1.0000
  C  Sn7       1.0  0.82810  0.42407  0.04441  1.0000
  C  Sn8       1.0  0.81748  0.43838  0.05938  1.0000
  C   C219      1.0  0.83277  0.45875  0.00842  1.0000
  C   C220      1.0  0.80088  0.50599  0.94319  1.0000
  H   H127      1.0  0.83115  0.49670  0.87797  1.0000
  O  Te7       1.0  0.81327  0.40364  0.09429  1.0000
  O  Te8       1.0  0.79194  0.43238  0.12426  1.0000
  H   H128      1.0  0.81258  0.52177  0.90402  1.0000
  Mg  Mg4       1.0  0.77945  0.40286  0.17512  1.0000
  C   C221      1.0  0.49862  0.31369  0.11441  1.0000
  C   C222      1.0  0.52447  0.32094  0.03149  1.0000
  C  Sn9       1.0  0.48004  0.34529  0.91369  1.0000
  C  Sn10      1.0  0.46695  0.32094  0.87846  1.0000
  C   C223      1.0  0.44109  0.31386  0.96199  1.0000
  C   C224      1.0  0.48569  0.28968  0.07969  1.0000
  H   H129      1.0  0.48864  0.32669  0.20540  1.0000
  O  Te9       1.0  0.50586  0.35284  0.83204  1.0000
  O  Te10      1.0  0.47955  0.30393  0.76125  1.0000
  H   H130      1.0  0.46568  0.28406  0.14377  1.0000
  Mg  Mg5       1.0  0.51474  0.32296  0.68264  1.0000
  C   C225      1.0  0.69567  0.19891  0.07215  1.0000
  C   C226      1.0  0.66076  0.25486  0.98607  1.0000
  C  Sn11      1.0  0.66178  0.26852  0.91144  1.0000
  C  Sn12      1.0  0.63975  0.26714  0.92345  1.0000
  C   C227      1.0  0.67474  0.21114  0.00996  1.0000
  C   C228      1.0  0.67393  0.19754  0.08412  1.0000
  H   H131      1.0  0.69504  0.18839  0.12963  1.0000
  O  Te11      1.0  0.68451  0.28337  0.82585  1.0000
  O  Te12      1.0  0.64023  0.28060  0.85008  1.0000
  H   H132      1.0  0.65643  0.18597  0.15086  1.0000
  Mg  Mg6       1.0  0.67569  0.29822  0.74678  1.0000
  C   C229      1.0  0.20462  0.30934  0.00502  1.0000
  C   C230      1.0  0.20978  0.33263  0.02535  1.0000
  C  Sn13      1.0  0.23230  0.34909  0.02670  1.0000
  C  Sn14      1.0  0.24995  0.34204  0.00726  1.0000
  C   C231      1.0  0.18712  0.35968  0.98687  1.0000
  C   C232      1.0  0.16452  0.34336  0.98577  1.0000
  H   H133      1.0  0.18714  0.29671  0.00407  1.0000
  O  Te13      1.0  0.23714  0.37229  0.04721  1.0000
  O  Te14      1.0  0.27260  0.35812  0.00806  1.0000
  H   H134      1.0  0.16054  0.32533  0.96990  1.0000
  Mg  Mg7       1.0  0.27064  0.38773  0.03991  1.0000
  C   C233      1.0  0.64475  0.89154  0.04629  1.0000
  C   C234      1.0  0.59942  0.91716  0.99247  1.0000
  C  Sn15      1.0  0.62476  0.92510  0.94340  1.0000
  C  Sn16      1.0  0.63813  0.94888  0.94848  1.0000
  C   C235      1.0  0.68329  0.92312  0.00264  1.0000
  C   C236      1.0  0.65792  0.91499  0.05141  1.0000
  H   H135      1.0  0.62512  0.88525  0.08412  1.0000
  O  Te15      1.0  0.63663  0.90952  0.88990  1.0000
  O  Te16      1.0  0.66348  0.95728  0.90021  1.0000
  H   H136      1.0  0.64851  0.92689  0.09319  1.0000
  Mg  Mg8       1.0  0.67139  0.92928  0.83665  1.0000
  C   C237      1.0  0.09746  0.79359  0.13421  1.0000
  C   C238      1.0  0.11887  0.78662  0.03310  1.0000
  C  Sn17      1.0  0.06312  0.80692  0.88276  1.0000
  C  Sn18      1.0  0.04305  0.79299  0.83302  1.0000
  C   C239      1.0  0.02173  0.80013  0.93498  1.0000
  C   C240      1.0  0.07767  0.77987  0.08520  1.0000
  H   H137      1.0  0.09626  0.80964  0.25038  1.0000
  O  Te17      1.0  0.08463  0.80020  0.78327  1.0000
  O  Te18      1.0  0.04432  0.77224  0.68334  1.0000
  H   H138      1.0  0.06110  0.78527  0.16339  1.0000
  Mg  Mg9       1.0  0.07754  0.77047  0.59046  1.0000
  C   C241      1.0  0.74910  0.65142  0.98914  1.0000
  C   C242      1.0  0.81176  0.63360  0.00671  1.0000
  C  Sn19      1.0  0.83420  0.65019  0.00875  1.0000
  C  Sn20      1.0  0.79427  0.68441  0.99283  1.0000
  C   C243      1.0  0.78895  0.66118  0.97518  1.0000
  C   C244      1.0  0.76643  0.64472  0.97336  1.0000
  H   H139      1.0  0.73169  0.63868  0.98763  1.0000
  O  Te19      1.0  0.83904  0.67326  0.02647  1.0000
  O  Te20      1.0  0.81685  0.70063  0.99440  1.0000
  H   H140      1.0  0.76246  0.62679  0.95963  1.0000
  Mg  Mg10      1.0  0.87241  0.68899  0.02154  1.0000
  C   C245      1.0  0.34603  0.11173  0.07512  1.0000
  C   C246      1.0  0.34095  0.12142  0.00560  1.0000
  C  Sn21      1.0  0.26437  0.14955  0.94922  1.0000
  C  Sn22      1.0  0.25016  0.12657  0.96292  1.0000
  C   C247      1.0  0.31288  0.07606  0.03278  1.0000
  C   C248      1.0  0.33201  0.08908  0.08874  1.0000
  H   H141      1.0  0.36083  0.12181  0.11852  1.0000
  O  Te21      1.0  0.25955  0.15948  0.88002  1.0000
  O  Te22      1.0  0.23098  0.11334  0.90763  1.0000
  H   H142      1.0  0.33594  0.08158  0.14268  1.0000
  Mg  Mg11      1.0  0.23151  0.13452  0.82239  1.0000
  C   C249      1.0  0.89136  0.24190  0.98463  1.0000
  C   C250      1.0  0.87814  0.21864  0.98400  1.0000
  C  Sn23      1.0  0.94419  0.16527  0.00551  1.0000
  C  Sn24      1.0  0.96638  0.17645  0.02810  1.0000
  C   C251      1.0  0.97946  0.19973  0.02868  1.0000
  C   C252      1.0  0.97074  0.21195  0.00698  1.0000
  H   H143      1.0  0.88461  0.25136  0.96795  1.0000
  O  Te23      1.0  0.93077  0.14204  0.00448  1.0000
  O  Te24      1.0  0.97534  0.16449  0.04995  1.0000
  H   H144      1.0  0.98097  0.22997  0.00760  1.0000
  Mg  Mg12      1.0  0.95050  0.13308  0.03910  1.0000
  C   C253      1.0  0.38796  0.61743  0.96098  1.0000
  C   C254      1.0  0.46390  0.58412  0.01506  1.0000
  C  Sn25      1.0  0.46673  0.56884  0.05237  1.0000
  C  Sn26      1.0  0.45077  0.54544  0.03505  1.0000
  C   C255      1.0  0.37489  0.57891  0.98073  1.0000
  C   C256      1.0  0.37222  0.59435  0.94380  1.0000
  H   H145      1.0  0.38590  0.62937  0.93231  1.0000
  O  Te25      1.0  0.48524  0.57681  0.10631  1.0000
  O  Te26      1.0  0.45319  0.52980  0.07142  1.0000
  H   H146      1.0  0.35795  0.58839  0.90182  1.0000
  Mg  Mg13      1.0  0.48121  0.54890  0.14070  1.0000
  C   C257      1.0  0.38099  0.76510  0.97235  1.0000
  C   C258      1.0  0.43232  0.74291  0.00656  1.0000
  C  Sn27      1.0  0.44830  0.76577  0.03644  1.0000
  C  Sn28      1.0  0.47087  0.76983  0.03186  1.0000
  C   C259      1.0  0.41938  0.79189  0.99740  1.0000
  C   C260      1.0  0.40325  0.76909  0.96774  1.0000
  H   H147      1.0  0.36852  0.74745  0.94930  1.0000
  O  Te27      1.0  0.44184  0.78435  0.07049  1.0000
  O  Te28      1.0  0.48719  0.79250  0.06120  1.0000
  H   H148      1.0  0.40805  0.75454  0.94114  1.0000
  Mg  Mg14      1.0  0.47016  0.81208  0.10224  1.0000
  C   C261      1.0  0.13101  0.63975  0.99819  1.0000
  C   C262      1.0  0.20408  0.62188  0.02172  1.0000
  C  Sn29      1.0  0.22517  0.62793  0.04117  1.0000
  C  Sn30      1.0  0.23074  0.61048  0.03686  1.0000
  C   C263      1.0  0.21506  0.58740  0.01312  1.0000
  C   C264      1.0  0.13649  0.62252  0.99385  1.0000
  H   H149      1.0  0.11471  0.63521  0.98318  1.0000
  O  Te29      1.0  0.24053  0.65111  0.06464  1.0000
  O  Te30      1.0  0.25171  0.61604  0.05590  1.0000
  H   H150      1.0  0.12445  0.60462  0.97551  1.0000
  Mg  Mg15      1.0  0.26694  0.65006  0.08469  1.0000
  C   C265      1.0  0.61166  0.37813  0.04531  1.0000
  C   C266      1.0  0.59201  0.37170  0.00773  1.0000
  C  Sn31      1.0  0.53243  0.42817  0.96746  1.0000
  C  Sn32      1.0  0.55039  0.45050  0.96481  1.0000
  C   C267      1.0  0.62749  0.41577  0.00247  1.0000
  C   C268      1.0  0.62939  0.40015  0.04266  1.0000
  H   H151      1.0  0.61314  0.36604  0.07631  1.0000
  O  Te31      1.0  0.51267  0.42147  0.93030  1.0000
  O  Te32      1.0  0.54876  0.46631  0.92491  1.0000
  H   H152      1.0  0.64462  0.40513  0.07163  1.0000
  Mg  Mg16      1.0  0.51845  0.44911  0.88346  1.0000
  C   C269      1.0  0.60095  0.19090  0.98855  1.0000
  C   C270      1.0  0.62251  0.20947  0.98801  1.0000
  C  Sn33      1.0  0.68239  0.19045  0.00001  1.0000
  C  Sn34      1.0  0.66278  0.19383  0.01282  1.0000
  C   C271      1.0  0.64127  0.17515  0.01338  1.0000
  C   C272      1.0  0.63909  0.15323  0.00125  1.0000
  H   H153      1.0  0.59926  0.17395  0.97927  1.0000
  O  Te33      1.0  0.64657  0.24980  0.99922  1.0000
  O  Te34      1.0  0.66466  0.21561  0.02503  1.0000
  H   H154      1.0  0.62239  0.13886  0.00179  1.0000
  Mg  Mg17      1.0  0.69787  0.23522  0.01863  1.0000
  C   C273      1.0  0.81303  0.40277  0.87747  1.0000
  C   C274      1.0  0.79266  0.41136  0.98061  1.0000
  C  Sn35      1.0  0.82873  0.36084  0.11539  1.0000
  C  Sn36      1.0  0.82772  0.34238  0.14722  1.0000
  C   C275      1.0  0.84821  0.33392  0.04340  1.0000
  C   C276      1.0  0.81206  0.38457  0.90883  1.0000
  H   H155      1.0  0.82955  0.41026  0.77342  1.0000
  O  Te35      1.0  0.80854  0.36962  0.21714  1.0000
  O  Te36      1.0  0.80653  0.33254  0.28112  1.0000
  H   H156      1.0  0.82783  0.37793  0.82909  1.0000
  Mg  Mg18      1.0  0.78381  0.35046  0.38422  1.0000
  C   C277      1.0  0.25423  0.24441  0.90223  1.0000
  C   C278      1.0  0.25658  0.26848  0.97758  1.0000
  C  Sn37      1.0  0.33205  0.24346  0.04352  1.0000
  C  Sn38      1.0  0.34794  0.23514  0.03361  1.0000
  C   C279      1.0  0.28795  0.25202  0.95787  1.0000
  C   C280      1.0  0.26989  0.23619  0.89234  1.0000
  H   H157      1.0  0.24027  0.23216  0.85144  1.0000
  O  Te37      1.0  0.33415  0.26745  0.11844  1.0000
  O  Te38      1.0  0.36607  0.25073  0.09844  1.0000
  H   H158      1.0  0.26809  0.21756  0.83391  1.0000
  Mg  Mg19      1.0  0.36170  0.28178  0.18861  1.0000
  C   C281      1.0  0.24579  0.00051  0.01230  1.0000
  C   C282      1.0  0.67056  0.02500  0.98075  1.0000
  C  Sn39      1.0  0.65826  0.03085  0.93824  1.0000
  C  Sn40      1.0  0.16392  0.05366  0.92717  1.0000
  C   C283      1.0  0.18473  0.07003  0.95885  1.0000
  C   C284      1.0  0.25440  0.02300  0.00134  1.0000
  H   H159      1.0  0.75827  0.99584  0.04508  1.0000
  O  Te39      1.0  0.63752  0.01416  0.90719  1.0000
  O  Te40      1.0  0.15198  0.05996  0.88487  1.0000
  H   H160      1.0  0.27050  0.03578  0.02564  1.0000
  Mg  Mg20      1.0  0.62753  0.03111  0.85401  1.0000
  C   C285      1.0  0.99814  0.75467  0.00701  1.0000
  C   C286      1.0  0.01251  0.74836  0.02709  1.0000
  C  Sn41      1.0  0.00506  0.72582  0.03257  1.0000
  C  Sn42      1.0  0.98280  0.70935  0.01758  1.0000
  C   C287      1.0  0.91106  0.75682  0.99740  1.0000
  C   C288      1.0  0.91869  0.77941  0.99214  1.0000
  H   H161      1.0  0.00405  0.77215  0.00284  1.0000
  O  Te41      1.0  0.01963  0.71981  0.05278  1.0000
  O  Te42      1.0  0.97492  0.68670  0.02257  1.0000
  H   H162      1.0  0.90757  0.78429  0.97647  1.0000
  Mg  Mg21      1.0  0.00111  0.68682  0.05217  1.0000
  C   C289      1.0  0.74896  0.75186  0.03328  1.0000
  C   C290      1.0  0.74163  0.72803  0.01066  1.0000
  C  Sn43      1.0  0.66330  0.75354  0.97678  1.0000
  C  Sn44      1.0  0.64960  0.76213  0.96537  1.0000
  C   C291      1.0  0.65710  0.78600  0.98808  1.0000
  C   C292      1.0  0.73547  0.76035  0.02198  1.0000
  H   H163      1.0  0.76512  0.76373  0.05941  1.0000
  O  Te43      1.0  0.65622  0.72978  0.95459  1.0000
  O  Te44      1.0  0.62872  0.74704  0.93158  1.0000
  H   H164      1.0  0.74116  0.77880  0.03937  1.0000
  Mg  Mg22      1.0  0.62643  0.71614  0.91103  1.0000
  C   C293      1.0  0.28154  0.98660  0.01787  1.0000
  C   C294      1.0  0.25782  0.97242  0.02993  1.0000
  C  Sn45      1.0  0.24345  0.98018  0.02162  1.0000
  C  Sn46      1.0  0.75001  0.00255  0.00078  1.0000
  C   C295      1.0  0.71626  0.05758  0.98870  1.0000
  C   C296      1.0  0.73048  0.04965  0.99724  1.0000
  H   H165      1.0  0.29254  0.98046  0.02437  1.0000
  O  Te45      1.0  0.21979  0.96579  0.03396  1.0000
  O  Te46      1.0  0.67854  0.05172  0.99201  1.0000
  H   H166      1.0  0.74885  0.06063  0.98777  1.0000
  Mg  Mg23      1.0  0.20787  0.98471  0.01508  1.0000
  C   C297      1.0  0.00007  0.24637  0.98879  1.0000
  C   C298      1.0  0.04215  0.21542  0.01472  1.0000
  C  Sn47      1.0  0.05113  0.23843  0.01285  1.0000
  C  Sn48      1.0  0.01852  0.29258  0.98441  1.0000
  C   C299      1.0  0.03381  0.28237  0.95847  1.0000
  C   C300      1.0  0.02463  0.25934  0.96066  1.0000
  H   H167      1.0  0.99298  0.22854  0.99037  1.0000
  O  Te47      1.0  0.03547  0.24818  0.03905  1.0000
  O  Te48      1.0  0.02798  0.31561  0.98184  1.0000
  H   H168      1.0  0.03658  0.25157  0.94046  1.0000
  Mg  Mg24      1.0  0.05691  0.28020  0.02403  1.0000
  C   C301      1.0  0.30157  0.51494  0.07812  1.0000
  C   C302      1.0  0.25673  0.57341  0.99577  1.0000
  C  Sn49      1.0  0.24670  0.57536  0.91190  1.0000
  C  Sn50      1.0  0.22356  0.55950  0.91072  1.0000
  C   C303      1.0  0.21102  0.54208  0.99360  1.0000
  C   C304      1.0  0.27873  0.49929  0.07708  1.0000
  H   H169      1.0  0.30946  0.51355  0.14281  1.0000
  O  Te49      1.0  0.25961  0.59292  0.83019  1.0000
  O  Te50      1.0  0.21311  0.56106  0.82793  1.0000
  H   H170      1.0  0.26892  0.48577  0.14094  1.0000
  Mg  Mg25      1.0  0.23777  0.58796  0.73469  1.0000
  C   C305      1.0  0.46011  0.74650  0.97711  1.0000
  C   C306      1.0  0.51296  0.72659  0.03967  1.0000
  C  Sn51      1.0  0.53150  0.74800  0.05634  1.0000
  C  Sn52      1.0  0.55512  0.74824  0.00936  1.0000
  C   C307      1.0  0.50208  0.76805  0.94678  1.0000
  C   C308      1.0  0.48340  0.74673  0.93067  1.0000
  H   H171      1.0  0.44566  0.73001  0.96454  1.0000
  O  Te51      1.0  0.52654  0.76889  0.11913  1.0000
  O  Te52      1.0  0.57398  0.76939  0.02465  1.0000
  H   H172      1.0  0.48701  0.73041  0.88211  1.0000
  Mg  Mg26      1.0  0.55823  0.79325  0.11671  1.0000
  C   C309      1.0  0.20716  0.70832  0.08198  1.0000
  C   C310      1.0  0.22855  0.72689  0.03688  1.0000
  C  Sn53      1.0  0.19434  0.76438  0.93768  1.0000
  C  Sn54      1.0  0.19619  0.74187  0.88277  1.0000
  C   C311      1.0  0.17468  0.72341  0.92845  1.0000
  C   C312      1.0  0.20898  0.68611  0.02781  1.0000
  H   H173      1.0  0.18920  0.71117  0.15877  1.0000
  O  Te53      1.0  0.21552  0.78312  0.89383  1.0000
  O  Te54      1.0  0.21923  0.73789  0.78346  1.0000
  H   H174      1.0  0.19242  0.67173  0.06260  1.0000
  Mg  Mg27      1.0  0.24274  0.76897  0.75659  1.0000
  C   C313      1.0  0.68849  0.48571  0.10935  1.0000
  C   C314      1.0  0.62940  0.50315  0.99981  1.0000
  C  Sn55      1.0  0.65068  0.49573  0.88338  1.0000
  C  Sn56      1.0  0.67394  0.51223  0.87684  1.0000
  C   C315      1.0  0.67533  0.53575  0.98707  1.0000
  C   C316      1.0  0.71143  0.50200  0.10303  1.0000
  H   H175      1.0  0.67193  0.49131  0.19915  1.0000
  O  Te55      1.0  0.64876  0.47214  0.77481  1.0000
  O  Te56      1.0  0.69550  0.50529  0.76176  1.0000
  H   H176      1.0  0.71266  0.52023  0.18792  1.0000
  Mg  Mg28      1.0  0.68339  0.47121  0.64001  1.0000
  C   C317      1.0  0.53491  0.25418  0.06038  1.0000
  C   C318      1.0  0.54112  0.23415  0.00156  1.0000
  C  Sn57      1.0  0.46927  0.25278  0.93451  1.0000
  C  Sn58      1.0  0.44834  0.25049  0.92631  1.0000
  C   C319      1.0  0.44229  0.27064  0.98536  1.0000
  C   C320      1.0  0.51427  0.25194  0.05227  1.0000
  H   H177      1.0  0.54612  0.27143  0.11206  1.0000
  O  Te57      1.0  0.47573  0.23295  0.87638  1.0000
  O  Te58      1.0  0.43369  0.22836  0.85983  1.0000
  H   H178      1.0  0.50947  0.26745  0.09768  1.0000
  Mg  Mg29      1.0  0.45001  0.20659  0.79669  1.0000
  C   C321      1.0  0.79614  0.30320  0.92920  1.0000
  C   C322      1.0  0.83544  0.27254  0.00482  1.0000
  C  Sn59      1.0  0.81043  0.26030  0.08131  1.0000
  C  Sn60      1.0  0.80357  0.23731  0.08194  1.0000
  C   C323      1.0  0.82192  0.22714  0.00606  1.0000
  C   C324      1.0  0.78939  0.28053  0.92982  1.0000
  H   H179      1.0  0.81546  0.31280  0.87030  1.0000
  O  Te59      1.0  0.79248  0.27088  0.15623  1.0000
  O  Te60      1.0  0.77871  0.22469  0.15755  1.0000
  H   H180      1.0  0.80348  0.27253  0.87139  1.0000
  Mg  Mg30      1.0  0.76105  0.24661  0.24317  1.0000
  C   C325      1.0  0.10612  0.29516  0.06258  1.0000
  C   C326      1.0  0.09098  0.29967  0.03671  1.0000
  C  Sn61      1.0  0.04169  0.36083  0.99439  1.0000
  C  Sn62      1.0  0.06551  0.37676  0.97771  1.0000
  C   C327      1.0  0.13803  0.33109  0.00372  1.0000
  C   C328      1.0  0.12962  0.31085  0.04608  1.0000
  H   H181      1.0  0.09962  0.27949  0.09526  1.0000
  O  Te61      1.0  0.02633  0.36508  0.96905  1.0000
  O  Te62      1.0  0.07419  0.39705  0.93546  1.0000
  H   H182      1.0  0.14135  0.30736  0.06599  1.0000
  Mg  Mg31      1.0  0.04642  0.39514  0.91354  1.0000
  C   C329      1.0  0.66805  0.77299  0.99750  1.0000
  C   C330      1.0  0.74826  0.74261  0.00722  1.0000
  C  Sn63      1.0  0.75980  0.76670  0.03314  1.0000
  C  Sn64      1.0  0.74835  0.78038  0.04963  1.0000
  C   C331      1.0  0.72562  0.76960  0.03985  1.0000
  C   C332      1.0  0.71424  0.74548  0.01382  1.0000
  H   H183      1.0  0.65924  0.75433  0.97746  1.0000
  O  Te63      1.0  0.78249  0.77702  0.04247  1.0000
  O  Te64      1.0  0.75947  0.80450  0.07568  1.0000
  H   H184      1.0  0.69665  0.73727  0.00642  1.0000
  Mg  Mg32      1.0  0.79037  0.81050  0.07932  1.0000
  C   C333      1.0  0.18694  0.88664  0.96293  1.0000
  C   C334      1.0  0.26306  0.86411  0.01431  1.0000
  C  Sn65      1.0  0.27591  0.86017  0.06491  1.0000
  C  Sn66      1.0  0.26996  0.83732  0.06388  1.0000
  C   C335      1.0  0.25131  0.81898  0.01213  1.0000
  C   C336      1.0  0.18107  0.86410  0.96181  1.0000
  H   H185      1.0  0.17709  0.88984  0.92389  1.0000
  O  Te65      1.0  0.29445  0.87881  0.11593  1.0000
  O  Te66      1.0  0.28251  0.83290  0.11376  1.0000
  H   H186      1.0  0.16666  0.84981  0.92192  1.0000
  Mg  Mg33      1.0  0.30631  0.86401  0.17275  1.0000
  C   C337      1.0  0.88008  0.66107  0.02081  1.0000
  C   C338      1.0  0.86365  0.66706  0.01995  1.0000
  C  Sn67      1.0  0.81357  0.72909  0.99164  1.0000
  C  Sn68      1.0  0.83792  0.74437  0.96365  1.0000
  C   C339      1.0  0.85422  0.73821  0.96463  1.0000
  C   C340      1.0  0.84659  0.71711  0.99315  1.0000
  H   H187      1.0  0.87418  0.64474  0.04278  1.0000
  O  Te67      1.0  0.79692  0.73482  0.99126  1.0000
  O  Te68      1.0  0.84583  0.76551  0.93496  1.0000
  H   H188      1.0  0.85932  0.71247  0.99369  1.0000
  Mg  Mg34      1.0  0.81636  0.76557  0.94649  1.0000
  C   C341      1.0  0.33941  0.21757  0.95777  1.0000
  C   C342      1.0  0.33202  0.19635  0.98342  1.0000
  C  Sn69      1.0  0.36600  0.13967  0.00208  1.0000
  C  Sn70      1.0  0.29212  0.18637  0.99483  1.0000
  C   C343      1.0  0.29969  0.20765  0.96898  1.0000
  C   C344      1.0  0.32326  0.22322  0.95052  1.0000
  H   H189      1.0  0.35765  0.22962  0.94338  1.0000
  O  Te69      1.0  0.35891  0.11854  0.02769  1.0000
  O  Te70      1.0  0.32602  0.13002  0.01302  1.0000
  H   H190      1.0  0.32899  0.23965  0.93055  1.0000
  Mg  Mg35      1.0  0.32486  0.10336  0.04552  1.0000
  C   C345      1.0  0.77409  0.10368  0.95351  1.0000
  C   C346      1.0  0.78208  0.09110  0.97792  1.0000
  C  Sn71      1.0  0.86000  0.06123  0.01805  1.0000
  C  Sn72      1.0  0.87262  0.08539  0.03400  1.0000
  C   C347      1.0  0.86448  0.09782  0.00947  1.0000
  C   C348      1.0  0.78653  0.12751  0.96930  1.0000
  H   H191      1.0  0.75826  0.09495  0.92253  1.0000
  O  Te71      1.0  0.86774  0.04840  0.04194  1.0000
  O  Te72      1.0  0.89308  0.09693  0.07407  1.0000
  H   H192      1.0  0.78034  0.13726  0.95053  1.0000
  Mg  Mg36      1.0  0.89658  0.07193  0.09464  1.0000
  C   C349      1.0  0.18888  0.50842  0.58876  1.0000
  C   C350      1.0  0.20377  0.53060  0.56763  1.0000
  C  Sn73      1.0  0.22938  0.53679  0.50124  1.0000
  C  Sn74      1.0  0.24023  0.52043  0.45521  1.0000
  C   C351      1.0  0.22518  0.49828  0.47671  1.0000
  C   C352      1.0  0.19958  0.49227  0.54332  1.0000
  H   H193      1.0  0.16907  0.50377  0.64020  1.0000
  O  Te73      1.0  0.24398  0.55902  0.48103  1.0000
  O  Te74      1.0  0.26578  0.52615  0.38849  1.0000
  H   H194      1.0  0.18806  0.47510  0.55955  1.0000
  Mg  Mg37      1.0  0.27790  0.55861  0.38496  1.0000
  C   C353      1.0  0.47223  0.69651  0.40927  1.0000
  C   C354      1.0  0.46838  0.68175  0.48848  1.0000
  C  Sn75      1.0  0.48273  0.68861  0.57614  1.0000
  C  Sn76      1.0  0.50127  0.71067  0.58450  1.0000
  C   C355      1.0  0.50497  0.72532  0.50495  1.0000
  C   C356      1.0  0.49051  0.71828  0.41751  1.0000
  H   H195      1.0  0.46104  0.69107  0.34171  1.0000
  O  Te75      1.0  0.47865  0.67364  0.65450  1.0000
  O  Te76      1.0  0.51588  0.71797  0.67133  1.0000
  H   H196      1.0  0.49349  0.72972  0.35631  1.0000
  Mg  Mg38      1.0  0.50330  0.69140  0.75759  1.0000
  C   C357      1.0  0.29354  0.80332  0.59420  1.0000
  C   C358      1.0  0.27948  0.78195  0.51411  1.0000
  C  Sn77      1.0  0.28773  0.76200  0.41212  1.0000
  C  Sn78      1.0  0.31048  0.76353  0.39019  1.0000
  C   C359      1.0  0.32441  0.78499  0.47098  1.0000
  C   C360      1.0  0.31598  0.80485  0.57270  1.0000
  H   H197      1.0  0.28702  0.81868  0.67300  1.0000
  O  Te77      1.0  0.27345  0.74079  0.33297  1.0000
  O  Te78      1.0  0.31916  0.74387  0.28902  1.0000
  H   H198      1.0  0.32686  0.82139  0.63480  1.0000
  Mg  Mg39      1.0  0.29310  0.71889  0.20755  1.0000
  C   C361      1.0  0.80311  0.49885  0.56361  1.0000
  C   C362      1.0  0.79283  0.47440  0.51674  1.0000
  C  Sn79      1.0  0.77504  0.46324  0.44917  1.0000
  C  Sn80      1.0  0.76744  0.47685  0.42824  1.0000
  C   C363      1.0  0.77785  0.50129  0.47539  1.0000
  C   C364      1.0  0.79564  0.51228  0.54293  1.0000
  H   H199      1.0  0.81688  0.50735  0.61577  1.0000
  O  Te79      1.0  0.76495  0.43879  0.40308  1.0000
  O  Te80      1.0  0.74970  0.46614  0.36096  1.0000
  H   H200      1.0  0.80360  0.53121  0.57910  1.0000
  Mg  Mg40      1.0  0.74137  0.43232  0.31705  1.0000
  C   C365      1.0  0.49932  0.29695  0.43527  1.0000
  C   C366      1.0  0.49645  0.28203  0.50859  1.0000
  C  Sn81      1.0  0.51092  0.28924  0.59635  1.0000
  C  Sn82      1.0  0.52857  0.31183  0.61079  1.0000
  C   C367      1.0  0.53130  0.32663  0.53711  1.0000
  C   C368      1.0  0.51673  0.31923  0.44952  1.0000
  H   H201      1.0  0.48804  0.29124  0.36759  1.0000
  O  Te81      1.0  0.50782  0.27411  0.66878  1.0000
  O  Te82      1.0  0.54327  0.31948  0.69786  1.0000
  H   H202      1.0  0.51894  0.33080  0.39287  1.0000
  Mg  Mg41      1.0  0.53220  0.29250  0.77473  1.0000
  C   C369      1.0  0.69431  0.19058  0.40109  1.0000
  C   C370      1.0  0.67779  0.20401  0.51298  1.0000
  C  Sn83      1.0  0.68534  0.22781  0.60928  1.0000
  C  Sn84      1.0  0.70990  0.23832  0.59293  1.0000
  C   C371      1.0  0.72630  0.22473  0.48053  1.0000
  C   C372      1.0  0.71854  0.20093  0.38483  1.0000
  H   H203      1.0  0.68832  0.17217  0.32696  1.0000
  O  Te83      1.0  0.66860  0.24097  0.72052  1.0000
  O  Te84      1.0  0.71794  0.26207  0.68759  1.0000
  H   H204      1.0  0.73134  0.19054  0.29811  1.0000
  Mg  Mg42      1.0  0.68827  0.27269  0.82216  1.0000
  C   C373      1.0  0.24608  0.34871  0.44500  1.0000
  C   C374      1.0  0.22096  0.34114  0.48801  1.0000
  C  Sn85      1.0  0.20500  0.32199  0.55395  1.0000
  C  Sn86      1.0  0.21441  0.31025  0.57717  1.0000
  C   C375      1.0  0.23957  0.31796  0.53388  1.0000
  C   C376      1.0  0.25538  0.33714  0.46793  1.0000
  H   H205      1.0  0.25832  0.36355  0.39407  1.0000
  O  Te85      1.0  0.17995  0.31466  0.59619  1.0000
  O  Te86      1.0  0.19886  0.29107  0.64291  1.0000
  H   H206      1.0  0.27482  0.34300  0.43475  1.0000
  Mg  Mg43      1.0  0.16613  0.28766  0.68142  1.0000
  C   C377      1.0  0.65049  0.89080  0.46059  1.0000
  C   C378      1.0  0.65900  0.87959  0.49311  1.0000
  C  Sn87      1.0  0.67950  0.89189  0.53342  1.0000
  C  Sn88      1.0  0.69166  0.91584  0.54128  1.0000
  C   C379      1.0  0.68299  0.92689  0.50866  1.0000
  C   C380      1.0  0.66247  0.91442  0.46838  1.0000
  H   H207      1.0  0.63461  0.88115  0.42953  1.0000
  O  Te87      1.0  0.68776  0.88042  0.56549  1.0000
  O  Te88      1.0  0.71218  0.92854  0.58134  1.0000
  H   H208      1.0  0.65588  0.92311  0.44333  1.0000
  Mg  Mg44      1.0  0.71648  0.90519  0.61472  1.0000
  C   C381      1.0  0.10514  0.74961  0.34136  1.0000
  C   C382      1.0  0.08411  0.75700  0.43725  1.0000
  C  Sn89      1.0  0.08504  0.78048  0.54606  1.0000
  C  Sn90      1.0  0.10746  0.79682  0.55881  1.0000
  C   C383      1.0  0.12840  0.78925  0.46224  1.0000
  C   C384      1.0  0.12726  0.76572  0.35380  1.0000
  H   H209      1.0  0.10427  0.73140  0.25738  1.0000
  O  Te89      1.0  0.06386  0.78756  0.64101  1.0000
  O  Te90      1.0  0.10890  0.82039  0.66651  1.0000
  H   H210      1.0  0.14355  0.76000  0.27948  1.0000
  Mg  Mg45      1.0  0.07506  0.82155  0.77000  1.0000
  C   C385      1.0  0.79787  0.68781  0.43609  1.0000
  C   C386      1.0  0.78934  0.66829  0.48732  1.0000
  C  Sn91      1.0  0.76439  0.65523  0.54264  1.0000
  C  Sn92      1.0  0.74771  0.66188  0.54656  1.0000
  C   C387      1.0  0.75642  0.68143  0.49492  1.0000
  C   C388      1.0  0.78143  0.69437  0.43985  1.0000
  H   H211      1.0  0.81722  0.69782  0.39338  1.0000
  O  Te91      1.0  0.75618  0.63578  0.59344  1.0000
  O  Te92      1.0  0.72268  0.64914  0.60122  1.0000
  H   H212      1.0  0.78803  0.70948  0.40008  1.0000
  Mg  Mg46      1.0  0.72036  0.62401  0.65785  1.0000
  C   C389      1.0  0.30975  0.10522  0.50969  1.0000
  C   C390      1.0  0.33127  0.12244  0.52578  1.0000
  C  Sn93      1.0  0.34778  0.11685  0.52903  1.0000
  C  Sn94      1.0  0.34260  0.09357  0.51586  1.0000
  C   C391      1.0  0.32103  0.07646  0.49968  1.0000
  C   C392      1.0  0.30463  0.08225  0.49662  1.0000
  H   H213      1.0  0.29707  0.10969  0.50721  1.0000
  O  Te93      1.0  0.36919  0.13427  0.54525  1.0000
  O  Te94      1.0  0.35878  0.08750  0.51871  1.0000
  H   H214      1.0  0.28798  0.06891  0.48404  1.0000
  Mg  Mg47      1.0  0.38554  0.11740  0.54295  1.0000
  C   C393      1.0  0.88804  0.24602  0.57908  1.0000
  C   C394      1.0  0.87721  0.22166  0.52629  1.0000
  C  Sn95      1.0  0.88950  0.20645  0.47325  1.0000
  C  Sn96      1.0  0.91305  0.21586  0.47325  1.0000
  C   C395      1.0  0.92371  0.24026  0.52642  1.0000
  C   C396      1.0  0.91126  0.25532  0.57919  1.0000
  H   H215      1.0  0.87840  0.25767  0.62000  1.0000
  O  Te95      1.0  0.87842  0.18216  0.42084  1.0000
  O  Te96      1.0  0.92573  0.20107  0.42094  1.0000
  H   H216      1.0  0.91964  0.27418  0.62017  1.0000
  Mg  Mg48      1.0  0.90299  0.16920  0.36080  1.0000
  C   C397      1.0  0.41154  0.60147  0.50001  1.0000
  C   C398      1.0  0.41558  0.62178  0.47708  1.0000
  C  Sn97      1.0  0.39747  0.62414  0.46777  1.0000
  C  Sn98      1.0  0.37490  0.60581  0.48178  1.0000
  C   C399      1.0  0.37103  0.58558  0.50483  1.0000
  C   C400      1.0  0.38928  0.58339  0.51390  1.0000
  H   H217      1.0  0.42565  0.59978  0.50713  1.0000
  O  Te97      1.0  0.40182  0.64454  0.44477  1.0000
  O  Te98      1.0  0.35648  0.60772  0.47298  1.0000
  H   H218      1.0  0.38614  0.56768  0.53178  1.0000
  Mg  Mg49      1.0  0.37108  0.63892  0.44059  1.0000
  C   C401      1.0  0.39366  0.75997  0.44086  1.0000
  C   C402      1.0  0.41403  0.77963  0.45294  1.0000
  C  Sn99      1.0  0.41483  0.80137  0.47230  1.0000
  C  Sn100     1.0  0.39483  0.80340  0.47970  1.0000
  C   C403      1.0  0.37453  0.78363  0.46763  1.0000
  C   C404      1.0  0.37392  0.76196  0.44822  1.0000
  H   H219      1.0  0.39318  0.74320  0.42594  1.0000
  O  Te99      1.0  0.43533  0.82083  0.48411  1.0000
  O  Te100     1.0  0.39515  0.82492  0.49906  1.0000
  H   H220      1.0  0.35814  0.74674  0.43899  1.0000
  Mg  Mg50      1.0  0.42718  0.84637  0.50941  1.0000
  C   C405      1.0  0.18899  0.59880  0.51544  1.0000
  C   C406      1.0  0.20627  0.62079  0.50463  1.0000
  C  Sn101     1.0  0.22984  0.62580  0.48383  1.0000
  C  Sn102     1.0  0.23618  0.60844  0.47366  1.0000
  C   C407      1.0  0.21876  0.58649  0.48448  1.0000
  C   C408      1.0  0.19523  0.58167  0.50535  1.0000
  H   H221      1.0  0.17079  0.59506  0.53148  1.0000
  O  Te101     1.0  0.24687  0.64786  0.47333  1.0000
  O  Te102     1.0  0.25960  0.61298  0.45282  1.0000
  H   H222      1.0  0.18186  0.56464  0.51359  1.0000
  Mg  Mg51      1.0  0.27644  0.64567  0.44515  1.0000
  C   C409      1.0  0.61691  0.37856  0.46592  1.0000
  C   C410      1.0  0.59240  0.37520  0.51549  1.0000
  C  Sn103     1.0  0.58575  0.39297  0.53875  1.0000
  C  Sn104     1.0  0.60402  0.41447  0.51174  1.0000
  C   C411      1.0  0.62850  0.41765  0.46203  1.0000
  C   C412      1.0  0.63495  0.39976  0.43918  1.0000
  H   H223      1.0  0.62191  0.36471  0.44814  1.0000
  O  Te103     1.0  0.56117  0.38932  0.58837  1.0000
  O  Te104     1.0  0.59789  0.43252  0.53401  1.0000
  H   H224      1.0  0.65393  0.40236  0.40068  1.0000
  Mg  Mg52      1.0  0.56192  0.41918  0.60245  1.0000
  C   C413      1.0  0.59758  0.19419  0.56750  1.0000
  C   C414      1.0  0.62161  0.20949  0.51702  1.0000
  C  Sn105     1.0  0.62780  0.22728  0.45573  1.0000
  C  Sn106     1.0  0.60956  0.22975  0.44497  1.0000
  C   C415      1.0  0.58557  0.21436  0.49591  1.0000
  C   C416      1.0  0.57958  0.19662  0.55699  1.0000
  H   H225      1.0  0.59294  0.18047  0.61486  1.0000
  O  Te105     1.0  0.65189  0.24241  0.40577  1.0000
  O  Te106     1.0  0.61524  0.24738  0.38425  1.0000
  H   H226      1.0  0.56098  0.18479  0.59618  1.0000
  Mg  Mg53      1.0  0.65064  0.26368  0.33150  1.0000
  C   C417      1.0  0.75730  0.38995  0.60941  1.0000
  C   C418      1.0  0.77583  0.40993  0.56233  1.0000
  C  Sn107     1.0  0.80061  0.41229  0.49707  1.0000
  C  Sn108     1.0  0.80689  0.39428  0.47870  1.0000
  C   C419      1.0  0.78821  0.37436  0.52605  1.0000
  C   C420      1.0  0.76348  0.37217  0.59128  1.0000
  H   H227      1.0  0.73816  0.38825  0.65978  1.0000
  O  Te107     1.0  0.81889  0.43237  0.45071  1.0000
  O  Te108     1.0  0.83151  0.39619  0.41376  1.0000
  H   H228      1.0  0.74913  0.35670  0.62761  1.0000
  Mg  Mg54      1.0  0.84980  0.42689  0.36846  1.0000
  C   C421      1.0  0.25975  0.24073  0.44125  1.0000
  C   C422      1.0  0.28194  0.24961  0.45533  1.0000
  C  Sn109     1.0  0.29300  0.27390  0.51066  1.0000
  C  Sn110     1.0  0.28159  0.28953  0.55263  1.0000
  C   C423      1.0  0.25938  0.28046  0.53825  1.0000
  C   C424      1.0  0.24848  0.25613  0.48269  1.0000
  H   H229      1.0  0.25130  0.22190  0.39837  1.0000
  O  Te109     1.0  0.31517  0.28248  0.52394  1.0000
  O  Te110     1.0  0.29224  0.31388  0.60832  1.0000
  H   H230      1.0  0.23129  0.24926  0.47192  1.0000
  Mg  Mg55      1.0  0.32253  0.31706  0.60563  1.0000
  C   C425      1.0  0.71163  0.00064  0.46399  1.0000
  C   C426      1.0  0.72043  0.98613  0.46133  1.0000
  C  Sn111     1.0  0.74238  0.99532  0.47923  1.0000
  C  Sn112     1.0  0.75572  0.01948  0.50020  1.0000
  C   C427      1.0  0.24370  0.03385  0.50283  1.0000
  C   C428      1.0  0.22172  0.02447  0.48475  1.0000
  H   H231      1.0  0.69462  0.99339  0.45011  1.0000
  O  Te111     1.0  0.75091  0.98058  0.47621  1.0000
  O  Te112     1.0  0.27465  0.02912  0.51843  1.0000
  H   H232      1.0  0.21491  0.03571  0.48694  1.0000
  Mg  Mg56      1.0  0.78181  0.00192  0.50600  1.0000
  C   C429      1.0  0.99834  0.71657  0.54537  1.0000
  C   C430      1.0  0.01473  0.73777  0.50980  1.0000
  C  Sn113     1.0  0.00784  0.75063  0.47930  1.0000
  C  Sn114     1.0  0.98407  0.74207  0.48465  1.0000
  C   C431      1.0  0.96780  0.72086  0.52048  1.0000
  C   C432      1.0  0.97490  0.70813  0.55075  1.0000
  H   H233      1.0  0.00383  0.70673  0.56889  1.0000
  O  Te113     1.0  0.02444  0.77177  0.44388  1.0000
  O  Te114     1.0  0.97670  0.75457  0.45472  1.0000
  H   H234      1.0  0.96220  0.69172  0.57840  1.0000
  Mg  Mg57      1.0  0.00587  0.78246  0.41178  1.0000
  C   C433      1.0  0.74311  0.76168  0.54753  1.0000
  C   C434      1.0  0.72299  0.75247  0.50722  1.0000
  C  Sn115     1.0  0.71102  0.72829  0.46408  1.0000
  C  Sn116     1.0  0.71939  0.71309  0.46141  1.0000
  C   C435      1.0  0.73952  0.72248  0.50207  1.0000
  C   C436      1.0  0.75137  0.74670  0.54500  1.0000
  H   H235      1.0  0.75227  0.78042  0.58085  1.0000
  O  Te115     1.0  0.69096  0.71937  0.42408  1.0000
  O  Te116     1.0  0.70776  0.68886  0.41881  1.0000
  H   H236      1.0  0.76694  0.75383  0.57632  1.0000
  Mg  Mg58      1.0  0.68119  0.68511  0.37404  1.0000
  C   C437      1.0  0.28239  0.98980  0.54898  1.0000
  C   C438      1.0  0.26065  0.97381  0.53007  1.0000
  C  Sn117     1.0  0.24784  0.97984  0.49331  1.0000
  C  Sn118     1.0  0.25701  0.00231  0.47518  1.0000
  C   C439      1.0  0.27878  0.01817  0.49421  1.0000
  C   C440      1.0  0.29145  0.01196  0.53105  1.0000
  H   H237      1.0  0.29220  0.98499  0.57738  1.0000
  O  Te117     1.0  0.22614  0.96366  0.47489  1.0000
  O  Te118     1.0  0.24458  0.00879  0.43838  1.0000
  H   H238      1.0  0.80524  0.02433  0.54557  1.0000
  Mg  Mg59      1.0  0.21578  0.98066  0.42502  1.0000
  C   C441      1.0  0.01697  0.28993  0.43655  1.0000
  C   C442      1.0  0.02768  0.28597  0.50421  1.0000
  C  Sn119     1.0  0.01635  0.26616  0.55928  1.0000
  C  Sn120     1.0  0.99388  0.25004  0.54616  1.0000
  C   C443      1.0  0.98333  0.25416  0.47815  1.0000
  C   C444      1.0  0.99482  0.27405  0.42349  1.0000
  H   H239      1.0  0.02587  0.30531  0.39415  1.0000
  O  Te119     1.0  0.02729  0.26247  0.62663  1.0000
  O  Te120     1.0  0.98217  0.23010  0.60017  1.0000
  H   H240      1.0  0.98654  0.27710  0.37099  1.0000
  Mg  Mg60      1.0  0.00428  0.23273  0.68304  1.0000
  C   C445      1.0  0.31084  0.51394  0.42591  1.0000
  C   C446      1.0  0.31275  0.53792  0.51450  1.0000
  C  Sn121     1.0  0.29156  0.54540  0.62357  1.0000
  C  Sn122     1.0  0.26805  0.52851  0.64410  1.0000
  C   C447      1.0  0.26633  0.50456  0.55500  1.0000
  C   C448      1.0  0.28765  0.49727  0.44615  1.0000
  H   H241      1.0  0.32733  0.50829  0.34177  1.0000
  O  Te121     1.0  0.29380  0.56943  0.71106  1.0000
  O  Te122     1.0  0.24657  0.53550  0.75234  1.0000
  H   H242      1.0  0.28616  0.47870  0.37767  1.0000
  Mg  Mg61      1.0  0.25916  0.57025  0.84390  1.0000
  C   C449      1.0  0.48998  0.78793  0.41976  1.0000
  C   C450      1.0  0.46465  0.77673  0.49840  1.0000
  C  Sn123     1.0  0.45576  0.76132  0.59083  1.0000
  C  Sn124     1.0  0.47258  0.75709  0.60460  1.0000
  C   C451      1.0  0.49789  0.76839  0.52558  1.0000
  C   C452      1.0  0.50658  0.78377  0.43335  1.0000
  H   H243      1.0  0.49670  0.79983  0.34849  1.0000
  O  Te123     1.0  0.43039  0.75028  0.66854  1.0000
  O  Te124     1.0  0.46420  0.74178  0.69627  1.0000
  H   H244      1.0  0.52619  0.79244  0.37258  1.0000
  Mg  Mg62      1.0  0.42795  0.73091  0.77949  1.0000
  C   C453      1.0  0.21086  0.68818  0.43086  1.0000
  C   C454      1.0  0.22211  0.68427  0.49465  1.0000
  C  Sn125     1.0  0.23812  0.70312  0.57166  1.0000
  C  Sn126     1.0  0.24292  0.72630  0.58491  1.0000
  C   C455      1.0  0.23156  0.73003  0.52082  1.0000
  C   C456      1.0  0.21557  0.71103  0.44395  1.0000
  H   H245      1.0  0.19847  0.67348  0.37148  1.0000
  O  Te125     1.0  0.24921  0.69890  0.63465  1.0000
  O  Te126     1.0  0.25884  0.74546  0.66134  1.0000
  H   H246      1.0  0.20685  0.71407  0.39468  1.0000
  Mg  Mg63      1.0  0.26952  0.73075  0.72790  1.0000
  C   C457      1.0  0.70935  0.49395  0.43152  1.0000
  C   C458      1.0  0.72327  0.50103  0.52321  1.0000
  C  Sn127     1.0  0.71693  0.48803  0.62619  1.0000
  C  Sn128     1.0  0.69627  0.46755  0.63728  1.0000
  C   C459      1.0  0.68246  0.46060  0.54494  1.0000
  C   C460      1.0  0.68897  0.47375  0.44233  1.0000
  H   H247      1.0  0.71439  0.50411  0.35204  1.0000
  O  Te127     1.0  0.73104  0.49536  0.71700  1.0000
  O  Te128     1.0  0.68953  0.45422  0.73918  1.0000
  H   H248      1.0  0.67819  0.46825  0.37125  1.0000
  Mg  Mg64      1.0  0.71450  0.47135  0.83863  1.0000
  C   C461      1.0  0.51206  0.21046  0.54939  1.0000
  C   C462      1.0  0.53745  0.22165  0.47459  1.0000
  C  Sn129     1.0  0.54646  0.24039  0.41328  1.0000
  C  Sn130     1.0  0.52969  0.24804  0.42733  1.0000
  C   C463      1.0  0.50432  0.23674  0.50249  1.0000
  C   C464      1.0  0.49551  0.21800  0.56337  1.0000
  H   H249      1.0  0.50524  0.19597  0.59658  1.0000
  O  Te129     1.0  0.57189  0.25137  0.33884  1.0000
  O  Te130     1.0  0.53819  0.26673  0.36718  1.0000
  H   H250      1.0  0.47584  0.20935  0.62138  1.0000
  Mg  Mg65      1.0  0.57449  0.27606  0.27579  1.0000
  C   C465      1.0  0.78620  0.31041  0.58492  1.0000
  C   C466      1.0  0.77800  0.31465  0.50079  1.0000
  C  Sn131     1.0  0.76337  0.29605  0.41068  1.0000
  C  Sn132     1.0  0.75686  0.27280  0.40495  1.0000
  C   C467      1.0  0.76515  0.26875  0.48966  1.0000
  C   C468      1.0  0.77978  0.28749  0.57940  1.0000
  H   H251      1.0  0.79751  0.32491  0.65444  1.0000
  O  Te131     1.0  0.75534  0.30059  0.32728  1.0000
  O  Te132     1.0  0.74226  0.25389  0.31589  1.0000
  H   H252      1.0  0.78611  0.28421  0.64463  1.0000
  Mg  Mg66      1.0  0.73583  0.26899  0.22265  1.0000
  C   C469      1.0  0.12645  0.30046  0.45579  1.0000
  C   C470      1.0  0.13788  0.32449  0.47774  1.0000
  C  Sn133     1.0  0.12483  0.33860  0.52468  1.0000
  C  Sn134     1.0  0.09986  0.32842  0.55006  1.0000
  C   C471      1.0  0.08859  0.30438  0.52790  1.0000
  C   C472      1.0  0.10183  0.29041  0.48086  1.0000
  H   H253      1.0  0.13669  0.28966  0.41949  1.0000
  O  Te133     1.0  0.13653  0.36257  0.54601  1.0000
  O  Te134     1.0  0.08638  0.34213  0.59708  1.0000
  H   H254      1.0  0.09297  0.27182  0.46399  1.0000
  Mg  Mg67      1.0  0.11043  0.37395  0.61069  1.0000
  C   C473      1.0  0.66765  0.77773  0.53335  1.0000
  C   C474      1.0  0.69246  0.78626  0.50094  1.0000
  C  Sn135     1.0  0.70650  0.80890  0.48772  1.0000
  C  Sn136     1.0  0.69544  0.82321  0.50743  1.0000
  C   C475      1.0  0.67060  0.81451  0.53996  1.0000
  C   C476      1.0  0.65673  0.79183  0.55288  1.0000
  H   H255      1.0  0.65691  0.76019  0.54345  1.0000
  O  Te135     1.0  0.73126  0.81715  0.45523  1.0000
  O  Te136     1.0  0.70904  0.84589  0.49491  1.0000
  H   H256      1.0  0.63751  0.78523  0.57809  1.0000
  Mg  Mg68      1.0  0.74215  0.84926  0.44921  1.0000
  C   C477      1.0  0.22396  0.88043  0.48630  1.0000
  C   C478      1.0  0.19993  0.86551  0.51443  1.0000
  C  Sn137     1.0  0.18244  0.87306  0.54115  1.0000
  C  Sn138     1.0  0.18918  0.89597  0.53954  1.0000
  C   C479      1.0  0.21327  0.91075  0.51116  1.0000
  C   C480      1.0  0.23063  0.90303  0.48463  1.0000
  H   H257      1.0  0.23740  0.87445  0.46567  1.0000
  O  Te137     1.0  0.15850  0.85793  0.56913  1.0000
  O  Te138     1.0  0.17206  0.90395  0.56582  1.0000
  H   H258      1.0  0.24924  0.91458  0.46274  1.0000
  Mg  Mg69      1.0  0.14174  0.87684  0.59863  1.0000
  C   C481      1.0  0.87985  0.66400  0.53353  1.0000
  C   C482      1.0  0.86451  0.66969  0.51837  1.0000
  C  Sn139     1.0  0.87345  0.68952  0.46956  1.0000
  C  Sn140     1.0  0.89822  0.70389  0.43534  1.0000
  C   C483      1.0  0.91342  0.69804  0.45074  1.0000
  C   C484      1.0  0.90428  0.67816  0.49973  1.0000
  H   H259      1.0  0.87278  0.64861  0.57133  1.0000
  O  Te139     1.0  0.85788  0.69495  0.45510  1.0000
  O  Te140     1.0  0.90763  0.72381  0.38627  1.0000
  H   H260      1.0  0.91616  0.67375  0.51134  1.0000
  Mg  Mg70      1.0  0.87922  0.72392  0.38430  1.0000
  C   C485      1.0  0.33777  0.22170  0.52373  1.0000
  C   C486      1.0  0.33201  0.19866  0.51214  1.0000
  C  Sn141     1.0  0.31267  0.18093  0.46627  1.0000
  C  Sn142     1.0  0.29889  0.18642  0.43139  1.0000
  C   C487      1.0  0.30481  0.20952  0.44322  1.0000
  C   C488      1.0  0.32420  0.22713  0.48928  1.0000
  H   H261      1.0  0.35278  0.23532  0.55927  1.0000
  O  Te141     1.0  0.30716  0.15801  0.45536  1.0000
  O  Te142     1.0  0.27948  0.16904  0.38521  1.0000
  H   H262      1.0  0.32866  0.24496  0.49812  1.0000
  Mg  Mg71      1.0  0.27902  0.14041  0.38759  1.0000
  C   C489      1.0  0.82372  0.12072  0.42028  1.0000
  C   C490      1.0  0.81180  0.13602  0.46944  1.0000
  C  Sn143     1.0  0.78615  0.12881  0.53289  1.0000
  C  Sn144     1.0  0.77223  0.10584  0.54728  1.0000
  C   C491      1.0  0.78432  0.09067  0.49788  1.0000
  C   C492      1.0  0.81000  0.09807  0.43450  1.0000
  H   H263      1.0  0.84358  0.12645  0.37134  1.0000
  O  Te143     1.0  0.77454  0.14432  0.58136  1.0000
  O  Te144     1.0  0.74657  0.09818  0.61034  1.0000
  H   H264      1.0  0.81922  0.08623  0.39657  1.0000
  Mg  Mg72      1.0  0.73918  0.12575  0.65976  1.0000
