data_image0
_chemical_formula_structural       H264C420N72C2Sn2C2HTe2HMgC2Sn2C2HTe2HMgC2Sn2C2HTe2HMgC2Sn2C2HTe2HMgC2Sn2C2HTe2HMgC2Sn2C2HTe2HMgC2Sn2C2HTe2HMgC2Sn2C2HTe2HMgC2Sn2C2HTe2HMgC2Sn2C2HTe2HMgC2Sn2C2HTe2HMgC2Sn2C2HTe2HMgC2Sn2C2HTe2HMgC2Sn2C2HTe2HMgC2Sn2C2HTe2HMgC2Sn2C2HTe2HMgC2Sn2C2HTe2HMgC2Sn2C2HTe2HMgC2Sn2C2HTe2HMgC2Sn2C2HTe2HMgC2Sn2C2HTe2HMgC2Sn2C2HTe2HMgC2Sn2C2HTe2HMgC2Sn2C2HTe2HMgC2Sn2C2HTe2HMgC2Sn2C2HTe2HMgC2Sn2C2HTe2HMgC2Sn2C2HTe2HMgC2Sn2C2HTe2HMgC2Sn2C2HTe2HMgC2Sn2C2HTe2HMgC2Sn2C2HTe2HMgC2Sn2C2HTe2HMgC2Sn2C2HTe2HMgC2Sn2C2HTe2HMgC2Sn2C2HTe2HMg
_chemical_formula_sum              "H336 C564 N72 Sn72 Te72 Mg36"
_cell_length_a       69.1783
_cell_length_b       69.3234
_cell_length_c       9.38135
_cell_angle_alpha    121.047
_cell_angle_beta     54.8252
_cell_angle_gamma    120.133

_symmetry_space_group_name_H-M    'P1'
_space_group_IT_number       1

loop_
  _space_group_symop_operation_xyz
  'x, y, z'

loop_
  _atom_site_type_symbol
  _atom_site_label
  _atom_site_symmetry_multiplicity
  _atom_site_fract_x
  _atom_site_fract_y
  _atom_site_fract_z
  _atom_site_occupancy
  H   H1        1.0  0.18836  0.45769  0.04844  1.0000
  H   H2        1.0  0.53734  0.73586  0.06777  1.0000
  H   H3        1.0  0.26084  0.81217  0.08030  1.0000
  H   H4        1.0  0.80256  0.54644  0.09336  1.0000
  H   H5        1.0  0.45958  0.26228  0.93372  1.0000
  H   H6        1.0  0.73716  0.18706  0.92744  1.0000
  H   H7        1.0  0.22749  0.38182  0.98598  1.0000
  H   H8        1.0  0.61791  0.84057  0.96429  1.0000
  H   H9        1.0  0.15489  0.76989  0.99060  1.0000
  H   H10       1.0  0.77310  0.61474  0.97988  1.0000
  H   H11       1.0  0.38280  0.15429  0.98149  1.0000
  H   H12       1.0  0.84412  0.22598  0.98331  1.0000
  H   H13       1.0  0.46707  0.73266  0.19815  1.0000
  H   H14       1.0  0.74011  0.47841  0.11496  1.0000
  H   H15       1.0  0.53057  0.26364  0.79175  1.0000
  H   H16       1.0  0.43906  0.69206  0.17908  1.0000
  H   H17       1.0  0.75207  0.44714  0.06839  1.0000
  H   H18       1.0  0.55944  0.30402  0.81188  1.0000
  H   H19       1.0  0.50142  0.66486  0.83017  1.0000
  H   H20       1.0  0.82865  0.48895  0.89393  1.0000
  H   H21       1.0  0.49788  0.33267  0.18602  1.0000
  H   H22       1.0  0.52943  0.70499  0.82274  1.0000
  H   H23       1.0  0.81722  0.51927  0.92275  1.0000
  H   H24       1.0  0.46930  0.29249  0.17666  1.0000
  H   H25       1.0  0.13742  0.75608  0.75244  1.0000
  H   H26       1.0  0.75390  0.62878  0.98999  1.0000
  H   H27       1.0  0.87779  0.24335  0.96157  1.0000
  H   H28       1.0  0.09750  0.73469  0.72452  1.0000
  H   H29       1.0  0.73016  0.64634  0.99586  1.0000
  H   H30       1.0  0.91794  0.26693  0.97243  1.0000
  H   H31       1.0  0.06555  0.78857  0.20280  1.0000
  H   H32       1.0  0.78838  0.71167  0.00236  1.0000
  H   H33       1.0  0.92009  0.21135  0.04174  1.0000
  H   H34       1.0  0.10551  0.80968  0.23143  1.0000
  H   H35       1.0  0.81253  0.69433  0.99506  1.0000
  H   H36       1.0  0.87942  0.18746  0.03496  1.0000
  H   H37       1.0  0.39843  0.75264  0.96600  1.0000
  H   H38       1.0  0.24368  0.64570  0.04814  1.0000
  H   H39       1.0  0.63709  0.39881  0.10012  1.0000
  H   H40       1.0  0.60350  0.25042  0.01736  1.0000
  H   H41       1.0  0.39273  0.82648  0.04415  1.0000
  H   H42       1.0  0.17743  0.56964  0.00304  1.0000
  H   H43       1.0  0.57632  0.38677  0.91629  1.0000
  H   H44       1.0  0.60891  0.17856  0.97411  1.0000
  H   H45       1.0  0.24511  0.01232  0.99428  1.0000
  H   H46       1.0  0.98430  0.22923  0.00209  1.0000
  H   H47       1.0  0.28424  0.97276  0.03104  1.0000
  H   H48       1.0  0.02916  0.31091  0.98057  1.0000
  H   H49       1.0  0.16588  0.31912  0.05670  1.0000
  H   H50       1.0  0.67947  0.85241  0.03511  1.0000
  H   H51       1.0  0.14688  0.82943  0.01587  1.0000
  H   H52       1.0  0.83011  0.68117  0.00074  1.0000
  H   H53       1.0  0.31596  0.14652  0.99575  1.0000
  H   H54       1.0  0.85114  0.16719  0.98018  1.0000
  H   H55       1.0  0.26845  0.45821  0.93099  1.0000
  H   H56       1.0  0.54397  0.79477  0.87749  1.0000
  H   H57       1.0  0.20124  0.73219  0.97107  1.0000
  H   H58       1.0  0.73812  0.53227  0.93581  1.0000
  H   H59       1.0  0.45701  0.19979  0.07490  1.0000
  H   H60       1.0  0.80021  0.26505  0.01225  1.0000
  H   H61       1.0  0.17613  0.40870  0.00702  1.0000
  H   H62       1.0  0.58214  0.77186  0.10267  1.0000
  H   H63       1.0  0.22511  0.82358  0.08957  1.0000
  H   H64       1.0  0.81411  0.59370  0.10549  1.0000
  H   H65       1.0  0.41487  0.22620  0.89696  1.0000
  H   H66       1.0  0.77145  0.17407  0.92574  1.0000
  H   H67       1.0  0.16185  0.37321  0.98915  1.0000
  H   H68       1.0  0.62282  0.78607  0.01966  1.0000
  H   H69       1.0  0.21125  0.83638  0.02527  1.0000
  H   H70       1.0  0.83680  0.62358  0.00669  1.0000
  H   H71       1.0  0.37453  0.21155  0.98506  1.0000
  H   H72       1.0  0.78541  0.16174  0.99742  1.0000
  H   H73       1.0  0.27867  0.48856  0.11968  1.0000
  H   H74       1.0  0.19488  0.72011  0.15895  1.0000
  H   H75       1.0  0.70501  0.51603  0.17402  1.0000
  H   H76       1.0  0.31716  0.52085  0.11602  1.0000
  H   H77       1.0  0.19064  0.67982  0.11035  1.0000
  H   H78       1.0  0.66760  0.48196  0.16725  1.0000
  H   H79       1.0  0.30586  0.55027  0.87318  1.0000
  H   H80       1.0  0.26942  0.69429  0.81319  1.0000
  H   H81       1.0  0.71391  0.43566  0.79036  1.0000
  H   H82       1.0  0.27014  0.51617  0.84661  1.0000
  H   H83       1.0  0.27368  0.73319  0.84110  1.0000
  H   H84       1.0  0.75105  0.46950  0.78953  1.0000
  H   H85       1.0  0.69695  0.84032  0.06559  1.0000
  H   H86       1.0  0.83193  0.13871  0.06278  1.0000
  H   H87       1.0  0.72070  0.82309  0.06233  1.0000
  H   H88       1.0  0.81448  0.09746  0.05447  1.0000
  H   H89       1.0  0.66786  0.75502  0.97592  1.0000
  H   H90       1.0  0.75825  0.08728  0.92782  1.0000
  H   H91       1.0  0.64416  0.77196  0.97363  1.0000
  H   H92       1.0  0.77683  0.12791  0.91956  1.0000
  H   H93       1.0  0.36295  0.75216  0.96020  1.0000
  H   H94       1.0  0.24560  0.61132  0.05467  1.0000
  H   H95       1.0  0.60443  0.36058  0.06782  1.0000
  H   H96       1.0  0.63948  0.25186  0.02161  1.0000
  H   H97       1.0  0.42837  0.82726  0.05503  1.0000
  H   H98       1.0  0.17556  0.60374  0.99281  1.0000
  H   H99       1.0  0.60958  0.42464  0.94193  1.0000
  H   H100      1.0  0.57236  0.17706  0.96962  1.0000
  H   H101      1.0  0.22353  0.97154  0.00636  1.0000
  H   H102      1.0  0.02737  0.24749  0.97361  1.0000
  H   H103      1.0  0.30589  0.01361  0.01933  1.0000
  H   H104      1.0  0.98640  0.29270  0.00893  1.0000
  H   H105      1.0  0.75564  0.33798  0.07183  1.0000
  H   H106      1.0  0.67075  0.41848  0.91408  1.0000
  H   H107      1.0  0.57465  0.24607  0.02386  1.0000
  H   H108      1.0  0.24598  0.65664  0.85051  1.0000
  H   H109      1.0  0.33406  0.57275  0.98337  1.0000
  H   H110      1.0  0.41907  0.76052  0.08076  1.0000
  H   H111      1.0  0.81820  0.44936  0.88863  1.0000
  H   H112      1.0  0.53974  0.35967  0.10119  1.0000
  H   H113      1.0  0.63518  0.19257  0.10677  1.0000
  H   H114      1.0  0.18707  0.54158  0.97500  1.0000
  H   H115      1.0  0.45986  0.63772  0.92558  1.0000
  H   H116      1.0  0.36504  0.81423  0.91698  1.0000
  H   H117      1.0  0.26824  0.21016  0.01103  1.0000
  H   H118      1.0  0.78670  0.05912  0.99260  1.0000
  H   H119      1.0  0.94257  0.72539  0.93061  1.0000
  H   H120      1.0  0.72713  0.79014  0.03576  1.0000
  H   H121      1.0  0.21294  0.93640  0.96869  1.0000
  H   H122      1.0  0.05548  0.27230  0.06706  1.0000
  H   H123      1.0  0.27388  0.31759  0.98156  1.0000
  H   H124      1.0  0.67708  0.95460  0.05734  1.0000
  H   H125      1.0  0.05446  0.73065  0.83794  1.0000
  H   H126      1.0  0.72513  0.67934  0.00987  1.0000
  H   H127      1.0  0.31067  0.05124  0.12046  1.0000
  H   H128      1.0  0.95392  0.27135  0.97867  1.0000
  H   H129      1.0  0.19802  0.45382  0.41105  1.0000
  H   H130      1.0  0.54793  0.73377  0.45229  1.0000
  H   H131      1.0  0.26552  0.80682  0.49652  1.0000
  H   H132      1.0  0.81108  0.54233  0.45207  1.0000
  H   H133      1.0  0.45179  0.26946  0.58803  1.0000
  H   H134      1.0  0.73529  0.19184  0.49343  1.0000
  H   H135      1.0  0.22814  0.38372  0.50325  1.0000
  H   H136      1.0  0.61782  0.84546  0.49777  1.0000
  H   H137      1.0  0.15602  0.77133  0.48019  1.0000
  H   H138      1.0  0.77294  0.61800  0.49723  1.0000
  H   H139      1.0  0.38364  0.15689  0.50147  1.0000
  H   H140      1.0  0.84558  0.22856  0.49739  1.0000
  H   H141      1.0  0.26028  0.52120  0.39827  1.0000
  H   H142      1.0  0.28110  0.74112  0.32131  1.0000
  H   H143      1.0  0.51119  0.28290  0.69765  1.0000
  H   H144      1.0  0.24833  0.55367  0.46116  1.0000
  H   H145      1.0  0.32085  0.75033  0.31753  1.0000
  H   H146      1.0  0.54264  0.32102  0.66529  1.0000
  H   H147      1.0  0.17153  0.51234  0.63729  1.0000
  H   H148      1.0  0.32034  0.82271  0.63134  1.0000
  H   H149      1.0  0.51509  0.32170  0.35725  1.0000
  H   H150      1.0  0.18283  0.48092  0.59685  1.0000
  H   H151      1.0  0.27926  0.81244  0.65834  1.0000
  H   H152      1.0  0.48486  0.28336  0.38143  1.0000
  H   H153      1.0  0.13573  0.75306  0.28921  1.0000
  H   H154      1.0  0.36905  0.12557  0.51855  1.0000
  H   H155      1.0  0.87153  0.24953  0.60840  1.0000
  H   H156      1.0  0.09465  0.73074  0.28183  1.0000
  H   H157      1.0  0.35245  0.08484  0.51392  1.0000
  H   H158      1.0  0.91293  0.27187  0.60213  1.0000
  H   H159      1.0  0.07174  0.79359  0.62246  1.0000
  H   H160      1.0  0.28732  0.07707  0.50793  1.0000
  H   H161      1.0  0.92637  0.20764  0.43719  1.0000
  H   H162      1.0  0.11243  0.81589  0.63751  1.0000
  H   H163      1.0  0.30403  0.11787  0.50903  1.0000
  H   H164      1.0  0.88537  0.18497  0.43255  1.0000
  H   H165      1.0  0.35854  0.60326  0.46973  1.0000
  H   H166      1.0  0.25071  0.64143  0.43690  1.0000
  H   H167      1.0  0.43071  0.60819  0.49319  1.0000
  H   H168      1.0  0.17839  0.57066  0.53554  1.0000
  H   H169      1.0  0.75407  0.98900  0.50235  1.0000
  H   H170      1.0  0.24972  0.01101  0.45090  1.0000
  H   H171      1.0  0.98175  0.23357  0.58274  1.0000
  H   H172      1.0  0.71463  0.02730  0.45676  1.0000
  H   H173      1.0  0.28439  0.97677  0.57601  1.0000
  H   H174      1.0  0.03281  0.30675  0.41418  1.0000
  H   H175      1.0  0.16828  0.31948  0.53113  1.0000
  H   H176      1.0  0.68126  0.85625  0.54517  1.0000
  H   H177      1.0  0.15269  0.83002  0.46062  1.0000
  H   H178      1.0  0.82983  0.68455  0.51387  1.0000
  H   H179      1.0  0.31583  0.15067  0.53756  1.0000
  H   H180      1.0  0.84805  0.17128  0.54658  1.0000
  H   H181      1.0  0.26234  0.46632  0.56489  1.0000
  H   H182      1.0  0.53674  0.80438  0.52268  1.0000
  H   H183      1.0  0.19472  0.73323  0.52494  1.0000
  H   H184      1.0  0.73055  0.54160  0.57521  1.0000
  H   H185      1.0  0.46828  0.19640  0.42634  1.0000
  H   H186      1.0  0.80647  0.26476  0.44090  1.0000
  H   H187      1.0  0.18709  0.40575  0.38422  1.0000
  H   H188      1.0  0.59261  0.76942  0.49162  1.0000
  H   H189      1.0  0.23168  0.82087  0.51063  1.0000
  H   H190      1.0  0.82343  0.59087  0.48785  1.0000
  H   H191      1.0  0.40657  0.23402  0.54849  1.0000
  H   H192      1.0  0.76832  0.18006  0.51116  1.0000
  H   H193      1.0  0.16476  0.37478  0.47013  1.0000
  H   H194      1.0  0.62715  0.78886  0.49146  1.0000
  H   H195      1.0  0.21014  0.83847  0.56178  1.0000
  H   H196      1.0  0.83902  0.62567  0.48603  1.0000
  H   H197      1.0  0.37842  0.21113  0.44522  1.0000
  H   H198      1.0  0.78983  0.16200  0.45518  1.0000
  H   H199      1.0  0.29477  0.48399  0.35034  1.0000
  H   H200      1.0  0.52167  0.79228  0.34280  1.0000
  H   H201      1.0  0.20700  0.70536  0.36786  1.0000
  H   H202      1.0  0.72169  0.50913  0.37323  1.0000
  H   H203      1.0  0.79162  0.29205  0.62770  1.0000
  H   H204      1.0  0.33170  0.51782  0.36649  1.0000
  H   H205      1.0  0.48665  0.79743  0.36962  1.0000
  H   H206      1.0  0.20060  0.66867  0.38965  1.0000
  H   H207      1.0  0.68323  0.47701  0.37912  1.0000
  H   H208      1.0  0.79646  0.32994  0.63118  1.0000
  H   H209      1.0  0.28576  0.56416  0.72304  1.0000
  H   H210      1.0  0.43541  0.74886  0.67582  1.0000
  H   H211      1.0  0.25177  0.70653  0.63195  1.0000
  H   H212      1.0  0.68778  0.45489  0.70713  1.0000
  H   H213      1.0  0.74768  0.29315  0.36545  1.0000
  H   H214      1.0  0.24881  0.53027  0.72344  1.0000
  H   H215      1.0  0.46982  0.74560  0.66796  1.0000
  H   H216      1.0  0.25491  0.74385  0.63946  1.0000
  H   H217      1.0  0.72571  0.48759  0.70896  1.0000
  H   H218      1.0  0.74600  0.25519  0.33807  1.0000
  H   H219      1.0  0.14396  0.29778  0.41780  1.0000
  H   H220      1.0  0.86746  0.69835  0.41898  1.0000
  H   H221      1.0  0.30477  0.15884  0.41620  1.0000
  H   H222      1.0  0.10263  0.27364  0.42612  1.0000
  H   H223      1.0  0.90910  0.72055  0.40214  1.0000
  H   H224      1.0  0.28218  0.17599  0.40431  1.0000
  H   H225      1.0  0.08611  0.33557  0.57999  1.0000
  H   H226      1.0  0.90699  0.67039  0.55124  1.0000
  H   H227      1.0  0.33103  0.24492  0.54258  1.0000
  H   H228      1.0  0.12681  0.36013  0.58668  1.0000
  H   H229      1.0  0.86451  0.64811  0.57577  1.0000
  H   H230      1.0  0.35269  0.22822  0.56905  1.0000
  H   H231      1.0  0.39385  0.63959  0.46431  1.0000
  H   H232      1.0  0.25366  0.60831  0.45419  1.0000
  H   H233      1.0  0.39560  0.57173  0.49788  1.0000
  H   H234      1.0  0.17494  0.60389  0.52346  1.0000
  H   H235      1.0  0.77355  0.03069  0.51503  1.0000
  H   H236      1.0  0.22993  0.96949  0.44868  1.0000
  H   H237      1.0  0.02233  0.25544  0.59821  1.0000
  H   H238      1.0  0.69481  0.98552  0.44766  1.0000
  H   H239      1.0  0.30409  0.01800  0.57865  1.0000
  H   H240      1.0  0.99257  0.28464  0.39432  1.0000
  H   H241      1.0  0.76114  0.33301  0.44396  1.0000
  H   H242      1.0  0.65577  0.43326  0.63212  1.0000
  H   H243      1.0  0.57843  0.24339  0.47991  1.0000
  H   H244      1.0  0.23468  0.66817  0.59656  1.0000
  H   H245      1.0  0.32827  0.58111  0.61830  1.0000
  H   H246      1.0  0.41934  0.76348  0.60745  1.0000
  H   H247      1.0  0.80825  0.45820  0.56404  1.0000
  H   H248      1.0  0.55182  0.35361  0.39900  1.0000
  H   H249      1.0  0.64362  0.18518  0.47055  1.0000
  H   H250      1.0  0.18328  0.55326  0.64743  1.0000
  H   H251      1.0  0.44654  0.65094  0.63832  1.0000
  H   H252      1.0  0.35411  0.81125  0.54967  1.0000
  H   H253      1.0  0.27549  0.20918  0.43746  1.0000
  H   H254      1.0  0.79134  0.05784  0.40021  1.0000
  H   H255      1.0  0.94569  0.72468  0.40138  1.0000
  H   H256      1.0  0.73104  0.79124  0.49031  1.0000
  H   H257      1.0  0.21100  0.94165  0.55515  1.0000
  H   H258      1.0  0.06311  0.26936  0.46933  1.0000
  H   H259      1.0  0.27588  0.31586  0.44099  1.0000
  H   H260      1.0  0.68362  0.95149  0.42531  1.0000
  H   H261      1.0  0.05333  0.72835  0.37421  1.0000
  H   H262      1.0  0.72521  0.68539  0.55116  1.0000
  H   H263      1.0  0.32032  0.04867  0.52518  1.0000
  H   H264      1.0  0.95161  0.27389  0.56234  1.0000
  C   C1        1.0  0.20607  0.45792  0.01902  1.0000
  C   C2        1.0  0.53887  0.74860  0.02478  1.0000
  C   C3        1.0  0.24806  0.79464  0.05609  1.0000
  C   C4        1.0  0.78894  0.54289  0.05298  1.0000
  C   C5        1.0  0.45904  0.24875  0.96561  1.0000
  C   C6        1.0  0.75076  0.20413  0.94620  1.0000
  C   C7        1.0  0.20898  0.43794  0.99538  1.0000
  C   C8        1.0  0.55915  0.76843  0.00468  1.0000
  C   C9        1.0  0.22741  0.79114  0.04449  1.0000
  C   C10       1.0  0.78787  0.56077  0.03325  1.0000
  C   C11       1.0  0.43933  0.22834  0.97852  1.0000
  C   C12       1.0  0.77126  0.20678  0.95525  1.0000
  C   C13       1.0  0.24876  0.47918  0.98337  1.0000
  C   C14       1.0  0.51993  0.76341  0.95826  1.0000
  C   C15       1.0  0.23438  0.75252  0.01646  1.0000
  C   C16       1.0  0.75232  0.51691  0.99427  1.0000
  C   C17       1.0  0.47904  0.23263  0.01261  1.0000
  C   C18       1.0  0.76645  0.24609  0.97379  1.0000
  C   C19       1.0  0.20891  0.37096  0.99979  1.0000
  C   C20       1.0  0.62778  0.83507  0.98716  1.0000
  C   C21       1.0  0.16172  0.78828  0.99988  1.0000
  C   C22       1.0  0.79054  0.62626  0.98782  1.0000
  C   C23       1.0  0.37135  0.16101  0.98444  1.0000
  C   C24       1.0  0.83734  0.20811  0.98467  1.0000
  C   C25       1.0  0.19858  0.34877  0.02091  1.0000
  C   C26       1.0  0.65019  0.84973  0.00028  1.0000
  C   C27       1.0  0.14821  0.79839  0.00382  1.0000
  C   C28       1.0  0.79971  0.64956  0.98990  1.0000
  C   C29       1.0  0.34785  0.14730  0.98959  1.0000
  C   C30       1.0  0.85081  0.19869  0.98870  1.0000
  C   C31       1.0  0.50055  0.72198  0.00438  1.0000
  C   C32       1.0  0.77765  0.50145  0.01825  1.0000
  C   C33       1.0  0.49770  0.27486  0.98644  1.0000
  C   C34       1.0  0.66807  0.80776  0.02399  1.0000
  C   C35       1.0  0.80600  0.13676  0.99124  1.0000
  C   C36       1.0  0.47480  0.71796  0.11090  1.0000
  C   C37       1.0  0.75954  0.48077  0.06128  1.0000
  C   C38       1.0  0.52339  0.27862  0.88100  1.0000
  C   C39       1.0  0.45895  0.69521  0.10390  1.0000
  C   C40       1.0  0.76622  0.46305  0.03670  1.0000
  C   C41       1.0  0.53961  0.30126  0.89128  1.0000
  C   C42       1.0  0.46816  0.67561  0.00058  1.0000
  C   C43       1.0  0.79111  0.46542  0.97413  1.0000
  C   C44       1.0  0.53090  0.32123  0.00380  1.0000
  C   C45       1.0  0.49393  0.67964  0.90565  1.0000
  C   C46       1.0  0.80933  0.48636  0.93795  1.0000
  C   C47       1.0  0.50516  0.31759  0.10173  1.0000
  C   C48       1.0  0.50963  0.70233  0.90395  1.0000
  C   C49       1.0  0.80253  0.50376  0.95818  1.0000
  C   C50       1.0  0.48902  0.29485  0.09471  1.0000
  C   C51       1.0  0.12156  0.76294  0.85229  1.0000
  C   C52       1.0  0.76186  0.64688  0.99158  1.0000
  C   C53       1.0  0.88652  0.23605  0.98151  1.0000
  C   C54       1.0  0.09917  0.75113  0.83648  1.0000
  C   C55       1.0  0.74835  0.65681  0.99503  1.0000
  C   C56       1.0  0.90948  0.24944  0.98624  1.0000
  C   C57       1.0  0.07892  0.76056  0.96016  1.0000
  C   C58       1.0  0.75791  0.68017  0.99622  1.0000
  C   C59       1.0  0.92193  0.24060  0.00597  1.0000
  C   C60       1.0  0.08144  0.78176  0.10430  1.0000
  C   C61       1.0  0.78130  0.69341  0.99699  1.0000
  C   C62       1.0  0.91054  0.21807  0.02449  1.0000
  C   C63       1.0  0.10376  0.79352  0.11917  1.0000
  C   C64       1.0  0.79464  0.68342  0.99366  1.0000
  C   C65       1.0  0.88766  0.20482  0.02037  1.0000
  C   C66       1.0  0.41578  0.79032  0.01582  1.0000
  C   C67       1.0  0.21004  0.62683  0.01081  1.0000
  C   C68       1.0  0.62625  0.41420  0.01653  1.0000
  C   C69       1.0  0.58485  0.21346  0.99572  1.0000
  C   C70       1.0  0.39732  0.76890  0.98425  1.0000
  C   C71       1.0  0.22988  0.62872  0.02832  1.0000
  C   C72       1.0  0.62426  0.39587  0.05425  1.0000
  C   C73       1.0  0.60402  0.23475  0.01323  1.0000
  C   C74       1.0  0.39412  0.81036  0.02663  1.0000
  C   C75       1.0  0.19224  0.58609  0.00931  1.0000
  C   C76       1.0  0.58937  0.38950  0.95931  1.0000
  C   C77       1.0  0.60731  0.19429  0.98642  1.0000
  C   C78       1.0  0.27670  0.01608  0.00995  1.0000
  C   C79       1.0  0.98216  0.25943  0.00867  1.0000
  C   C80       1.0  0.25341  0.00361  0.00491  1.0000
  C   C81       1.0  0.99444  0.24712  0.99761  1.0000
  C   C82       1.0  0.27574  0.98154  0.02313  1.0000
  C   C83       1.0  0.01905  0.29312  0.98783  1.0000
  C   C84       1.0  0.20643  0.40346  0.97884  1.0000
  C   C85       1.0  0.59419  0.79788  0.98577  1.0000
  C   C86       1.0  0.19768  0.79213  0.02008  1.0000
  C   C87       1.0  0.79278  0.59303  0.00266  1.0000
  C   C88       1.0  0.40491  0.19843  0.99042  1.0000
  C   C89       1.0  0.80083  0.20495  0.97604  1.0000
  C   C90       1.0  0.19541  0.37998  0.99306  1.0000
  C   C91       1.0  0.61775  0.81236  0.99832  1.0000
  C   C92       1.0  0.18420  0.80223  0.01362  1.0000
  C   C93       1.0  0.80358  0.61709  0.99814  1.0000
  C   C94       1.0  0.38090  0.18418  0.98348  1.0000
  C   C95       1.0  0.81406  0.19465  0.98332  1.0000
  C   C96       1.0  0.17429  0.33611  0.03743  1.0000
  C   C97       1.0  0.66254  0.84081  0.02012  1.0000
  C   C98       1.0  0.15760  0.82225  0.01646  1.0000
  C   C99       1.0  0.82269  0.66309  0.99741  1.0000
  C   C100      1.0  0.33442  0.15703  0.98767  1.0000
  C   C101      1.0  0.84055  0.17510  0.98534  1.0000
  C   C102      1.0  0.23148  0.43792  0.96450  1.0000
  C   C103      1.0  0.56143  0.78484  0.94564  1.0000
  C   C104      1.0  0.21021  0.76863  0.01386  1.0000
  C   C105      1.0  0.77007  0.55711  0.98444  1.0000
  C   C106      1.0  0.43817  0.21078  0.02078  1.0000
  C   C107      1.0  0.78933  0.22883  0.97834  1.0000
  C   C108      1.0  0.25114  0.45842  0.95674  1.0000
  C   C109      1.0  0.54196  0.78195  0.92152  1.0000
  C   C110      1.0  0.21382  0.74969  0.00180  1.0000
  C   C111      1.0  0.75207  0.53529  0.97106  1.0000
  C   C112      1.0  0.45796  0.21308  0.03927  1.0000
  C   C113      1.0  0.78678  0.24802  0.98589  1.0000
  C   C114      1.0  0.22587  0.47885  0.00888  1.0000
  C   C115      1.0  0.51926  0.74540  0.99781  1.0000
  C   C116      1.0  0.25261  0.77541  0.03531  1.0000
  C   C117      1.0  0.77223  0.52017  0.02429  1.0000
  C   C118      1.0  0.47886  0.25134  0.98604  1.0000
  C   C119      1.0  0.74742  0.22368  0.96096  1.0000
  C   C120      1.0  0.16063  0.34424  0.02405  1.0000
  C   C121      1.0  0.65360  0.81766  0.02205  1.0000
  C   C122      1.0  0.18060  0.83640  0.02184  1.0000
  C   C123      1.0  0.83652  0.65427  0.00288  1.0000
  C   C124      1.0  0.34375  0.17996  0.98148  1.0000
  C   C125      1.0  0.81704  0.16132  0.98825  1.0000
  C   C126      1.0  0.17168  0.36651  0.00280  1.0000
  C   C127      1.0  0.63059  0.80385  0.01591  1.0000
  C   C128      1.0  0.19342  0.82587  0.02187  1.0000
  C   C129      1.0  0.82652  0.63100  0.00403  1.0000
  C   C130      1.0  0.36712  0.19342  0.98156  1.0000
  C   C131      1.0  0.80391  0.17165  0.98942  1.0000
  C   C132      1.0  0.27098  0.49975  0.98496  1.0000
  C   C133      1.0  0.23455  0.73022  0.00377  1.0000
  C   C134      1.0  0.73083  0.49542  0.98734  1.0000
  C   C135      1.0  0.12424  0.78455  0.99218  1.0000
  C   C136      1.0  0.78544  0.65988  0.98995  1.0000
  C   C137      1.0  0.87510  0.21324  0.99685  1.0000
  C   C138      1.0  0.28510  0.50160  0.05862  1.0000
  C   C139      1.0  0.21131  0.71435  0.07898  1.0000
  C   C140      1.0  0.70690  0.49836  0.09053  1.0000
  C   C141      1.0  0.30649  0.52000  0.06093  1.0000
  C   C142      1.0  0.20875  0.69177  0.05400  1.0000
  C   C143      1.0  0.68586  0.47932  0.08729  1.0000
  C   C144      1.0  0.31398  0.53816  0.99755  1.0000
  C   C145      1.0  0.22971  0.68396  0.95781  1.0000
  C   C146      1.0  0.68806  0.45631  0.98198  1.0000
  C   C147      1.0  0.29992  0.53654  0.92603  1.0000
  C   C148      1.0  0.25294  0.69988  0.88759  1.0000
  C   C149      1.0  0.71192  0.45330  0.87713  1.0000
  C   C150      1.0  0.27950  0.51733  0.91276  1.0000
  C   C151      1.0  0.25539  0.72229  0.90743  1.0000
  C   C152      1.0  0.73304  0.47252  0.87721  1.0000
  C   C153      1.0  0.69019  0.82162  0.04557  1.0000
  C   C154      1.0  0.81614  0.12759  0.02923  1.0000
  C   C155      1.0  0.70376  0.81188  0.04352  1.0000
  C   C156      1.0  0.80621  0.10425  0.02598  1.0000
  C   C157      1.0  0.69570  0.78785  0.02169  1.0000
  C   C158      1.0  0.78516  0.08950  0.99004  1.0000
  C   C159      1.0  0.67384  0.77375  0.99708  1.0000
  C   C160      1.0  0.77451  0.09870  0.95613  1.0000
  C   C161      1.0  0.66057  0.78353  0.99758  1.0000
  C   C162      1.0  0.78490  0.12175  0.95443  1.0000
  C   C163      1.0  0.37744  0.76851  0.98046  1.0000
  C   C164      1.0  0.23082  0.60968  0.03463  1.0000
  C   C165      1.0  0.60584  0.37464  0.03870  1.0000
  C   C166      1.0  0.62437  0.23563  0.01386  1.0000
  C   C167      1.0  0.37532  0.78914  0.00191  1.0000
  C   C168      1.0  0.21235  0.58784  0.02394  1.0000
  C   C169      1.0  0.58799  0.37100  0.99168  1.0000
  C   C170      1.0  0.62651  0.21553  0.00083  1.0000
  C   C171      1.0  0.41396  0.81087  0.03323  1.0000
  C   C172      1.0  0.19105  0.60520  0.00412  1.0000
  C   C173      1.0  0.60816  0.41072  0.97234  1.0000
  C   C174      1.0  0.58699  0.19347  0.98400  1.0000
  C   C175      1.0  0.24140  0.98075  0.01082  1.0000
  C   C176      1.0  0.01847  0.25749  0.98215  1.0000
  C   C177      1.0  0.25241  0.96908  0.01936  1.0000
  C   C178      1.0  0.03112  0.28093  0.98021  1.0000
  C   C179      1.0  0.28780  0.00448  0.01800  1.0000
  C   C180      1.0  0.99502  0.28277  0.00389  1.0000
  C   C181      1.0  0.77341  0.33670  0.03278  1.0000
  C   C182      1.0  0.66686  0.43531  0.97332  1.0000
  C   C183      1.0  0.56170  0.22852  0.99516  1.0000
  C   C184      1.0  0.22830  0.66096  0.93709  1.0000
  C   C185      1.0  0.33531  0.55875  0.99816  1.0000
  C   C186      1.0  0.43583  0.77528  0.04773  1.0000
  C   C187      1.0  0.79822  0.44730  0.95497  1.0000
  C   C188      1.0  0.54790  0.34510  0.02696  1.0000
  C   C189      1.0  0.65094  0.20570  0.03948  1.0000
  C   C190      1.0  0.20247  0.54889  0.01216  1.0000
  C   C191      1.0  0.45174  0.65169  0.98281  1.0000
  C   C192      1.0  0.35027  0.79955  0.96916  1.0000
  C   C193      1.0  0.28767  0.22042  0.98557  1.0000
  C   C194      1.0  0.77514  0.06509  0.98691  1.0000
  C   C195      1.0  0.93445  0.70984  0.97358  1.0000
  C   C196      1.0  0.70980  0.77795  0.02286  1.0000
  C   C197      1.0  0.22268  0.93175  0.00184  1.0000
  C   C198      1.0  0.06482  0.28758  0.01896  1.0000
  C   C199      1.0  0.25507  0.30664  0.99227  1.0000
  C   C200      1.0  0.69060  0.94600  0.00652  1.0000
  C   C201      1.0  0.05610  0.74849  0.93740  1.0000
  C   C202      1.0  0.74390  0.69044  0.99815  1.0000
  C   C203      1.0  0.30450  0.05420  0.04983  1.0000
  C   C204      1.0  0.94647  0.25451  0.00184  1.0000
  C   C205      1.0  0.21177  0.45679  0.44778  1.0000
  C   C206      1.0  0.54528  0.74902  0.46749  1.0000
  C   C207      1.0  0.24989  0.79107  0.51144  1.0000
  C   C208      1.0  0.79325  0.54209  0.48325  1.0000
  C   C209      1.0  0.45536  0.25364  0.55292  1.0000
  C   C210      1.0  0.75108  0.20747  0.47512  1.0000
  C   C211      1.0  0.21321  0.43841  0.45895  1.0000
  C   C212      1.0  0.56355  0.77048  0.47512  1.0000
  C   C213      1.0  0.22839  0.78926  0.51888  1.0000
  C   C214      1.0  0.79055  0.56173  0.49998  1.0000
  C   C215      1.0  0.43815  0.23182  0.52708  1.0000
  C   C216      1.0  0.77249  0.20978  0.46993  1.0000
  C   C217      1.0  0.24791  0.48263  0.51562  1.0000
  C   C218      1.0  0.52017  0.76736  0.49471  1.0000
  C   C219      1.0  0.23184  0.74997  0.50868  1.0000
  C   C220      1.0  0.75003  0.52121  0.53098  1.0000
  C   C221      1.0  0.48235  0.23443  0.49599  1.0000
  C   C222      1.0  0.76897  0.24810  0.46777  1.0000
  C   C223      1.0  0.21030  0.37249  0.50113  1.0000
  C   C224      1.0  0.62895  0.83959  0.50553  1.0000
  C   C225      1.0  0.16322  0.78967  0.48784  1.0000
  C   C226      1.0  0.79079  0.62929  0.49946  1.0000
  C   C227      1.0  0.37243  0.16316  0.49803  1.0000
  C   C228      1.0  0.83831  0.21075  0.50051  1.0000
  C   C229      1.0  0.20025  0.34981  0.51222  1.0000
  C   C230      1.0  0.65131  0.85424  0.51930  1.0000
  C   C231      1.0  0.15087  0.79964  0.47828  1.0000
  C   C232      1.0  0.80010  0.65248  0.49877  1.0000
  C   C233      1.0  0.34844  0.14973  0.51052  1.0000
  C   C234      1.0  0.85093  0.20156  0.51492  1.0000
  C   C235      1.0  0.22245  0.49859  0.49806  1.0000
  C   C236      1.0  0.27632  0.77583  0.49620  1.0000
  C   C237      1.0  0.49588  0.27939  0.53702  1.0000
  C   C238      1.0  0.13879  0.33093  0.50206  1.0000
  C   C239      1.0  0.86241  0.67112  0.49685  1.0000
  C   C240      1.0  0.33106  0.19209  0.48899  1.0000
  C   C241      1.0  0.24078  0.51931  0.45605  1.0000
  C   C242      1.0  0.28911  0.75880  0.39518  1.0000
  C   C243      1.0  0.51205  0.29107  0.62113  1.0000
  C   C244      1.0  0.23423  0.53761  0.48883  1.0000
  C   C245      1.0  0.31175  0.76393  0.38929  1.0000
  C   C246      1.0  0.52968  0.31258  0.60475  1.0000
  C   C247      1.0  0.20926  0.53548  0.55506  1.0000
  C   C248      1.0  0.32348  0.78694  0.47620  1.0000
  C   C249      1.0  0.53162  0.32396  0.50653  1.0000
  C   C250      1.0  0.19080  0.51458  0.58978  1.0000
  C   C251      1.0  0.31179  0.80451  0.56577  1.0000
  C   C252      1.0  0.51444  0.31342  0.43292  1.0000
  C   C253      1.0  0.19749  0.49658  0.56276  1.0000
  C   C254      1.0  0.28847  0.79887  0.57957  1.0000
  C   C255      1.0  0.49705  0.29164  0.44801  1.0000
  C   C256      1.0  0.12158  0.76190  0.36614  1.0000
  C   C257      1.0  0.35118  0.11527  0.51564  1.0000
  C   C258      1.0  0.88354  0.24015  0.56769  1.0000
  C   C259      1.0  0.09862  0.74945  0.36008  1.0000
  C   C260      1.0  0.34188  0.09210  0.51217  1.0000
  C   C261      1.0  0.90692  0.25281  0.56548  1.0000
  C   C262      1.0  0.08042  0.76077  0.45220  1.0000
  C   C263      1.0  0.31860  0.07801  0.51135  1.0000
  C   C264      1.0  0.92264  0.24125  0.51877  1.0000
  C   C265      1.0  0.08592  0.78502  0.55060  1.0000
  C   C266      1.0  0.30515  0.08796  0.51204  1.0000
  C   C267      1.0  0.91429  0.21656  0.47236  1.0000
  C   C268      1.0  0.10876  0.79737  0.55710  1.0000
  C   C269      1.0  0.31457  0.11105  0.51500  1.0000
  C   C270      1.0  0.89116  0.20403  0.47262  1.0000
  C   C271      1.0  0.37371  0.58523  0.49532  1.0000
  C   C272      1.0  0.21196  0.62556  0.49291  1.0000
  C   C273      1.0  0.37367  0.60480  0.48547  1.0000
  C   C274      1.0  0.23456  0.62644  0.46736  1.0000
  C   C275      1.0  0.41465  0.60737  0.49323  1.0000
  C   C276      1.0  0.19375  0.58668  0.52352  1.0000
  C   C277      1.0  0.72326  0.98418  0.47343  1.0000
  C   C278      1.0  0.27830  0.01739  0.51320  1.0000
  C   C279      1.0  0.98385  0.25779  0.49348  1.0000
  C   C280      1.0  0.74591  0.99730  0.48737  1.0000
  C   C281      1.0  0.25685  0.00338  0.48133  1.0000
  C   C282      1.0  0.99320  0.24949  0.54440  1.0000
  C   C283      1.0  0.72302  0.01866  0.46709  1.0000
  C   C284      1.0  0.27702  0.98436  0.54770  1.0000
  C   C285      1.0  0.02133  0.29079  0.45224  1.0000
  C   C286      1.0  0.20876  0.40546  0.47796  1.0000
  C   C287      1.0  0.59633  0.80190  0.49065  1.0000
  C   C288      1.0  0.19792  0.79291  0.52090  1.0000
  C   C289      1.0  0.79349  0.59598  0.51003  1.0000
  C   C290      1.0  0.40704  0.19973  0.48553  1.0000
  C   C291      1.0  0.80304  0.20723  0.47379  1.0000
  C   C292      1.0  0.19754  0.38159  0.48715  1.0000
  C   C293      1.0  0.62001  0.81620  0.49964  1.0000
  C   C294      1.0  0.18495  0.80346  0.51333  1.0000
  C   C295      1.0  0.80436  0.61974  0.50103  1.0000
  C   C296      1.0  0.38282  0.18571  0.48335  1.0000
  C   C297      1.0  0.81580  0.19704  0.48662  1.0000
  C   C298      1.0  0.17648  0.33681  0.51746  1.0000
  C   C299      1.0  0.66426  0.84501  0.53065  1.0000
  C   C300      1.0  0.16147  0.82323  0.48310  1.0000
  C   C301      1.0  0.82330  0.66614  0.50294  1.0000
  C   C302      1.0  0.33499  0.16003  0.51428  1.0000
  C   C303      1.0  0.83992  0.17835  0.52040  1.0000
  C   C304      1.0  0.23108  0.44167  0.50497  1.0000
  C   C305      1.0  0.56088  0.79066  0.49306  1.0000
  C   C306      1.0  0.20847  0.76831  0.52055  1.0000
  C   C307      1.0  0.76798  0.56186  0.53242  1.0000
  C   C308      1.0  0.44266  0.21108  0.48069  1.0000
  C   C309      1.0  0.79279  0.23050  0.45895  1.0000
  C   C310      1.0  0.24855  0.46368  0.52949  1.0000
  C   C311      1.0  0.53913  0.78879  0.50343  1.0000
  C   C312      1.0  0.21040  0.74898  0.51673  1.0000
  C   C313      1.0  0.74801  0.54160  0.54853  1.0000
  C   C314      1.0  0.46461  0.21244  0.46531  1.0000
  C   C315      1.0  0.79076  0.24918  0.45522  1.0000
  C   C316      1.0  0.22812  0.47949  0.48429  1.0000
  C   C317      1.0  0.52299  0.74705  0.48098  1.0000
  C   C318      1.0  0.25209  0.77160  0.50791  1.0000
  C   C319      1.0  0.77304  0.52157  0.50336  1.0000
  C   C320      1.0  0.47794  0.25531  0.53267  1.0000
  C   C321      1.0  0.74893  0.22641  0.47176  1.0000
  C   C322      1.0  0.16335  0.34541  0.50279  1.0000
  C   C323      1.0  0.65603  0.82133  0.51981  1.0000
  C   C324      1.0  0.18317  0.83750  0.50898  1.0000
  C   C325      1.0  0.83773  0.65686  0.49798  1.0000
  C   C326      1.0  0.34524  0.18215  0.49273  1.0000
  C   C327      1.0  0.81786  0.16402  0.50093  1.0000
  C   C328      1.0  0.17427  0.36794  0.48588  1.0000
  C   C329      1.0  0.63376  0.80720  0.50304  1.0000
  C   C330      1.0  0.19438  0.82742  0.52884  1.0000
  C   C331      1.0  0.82801  0.63336  0.49376  1.0000
  C   C332      1.0  0.36960  0.19465  0.47336  1.0000
  C   C333      1.0  0.80608  0.17355  0.48168  1.0000
  C   C334      1.0  0.26891  0.50434  0.53091  1.0000
  C   C335      1.0  0.49850  0.76841  0.50397  1.0000
  C   C336      1.0  0.23106  0.72791  0.50518  1.0000
  C   C337      1.0  0.72721  0.50091  0.53841  1.0000
  C   C338      1.0  0.76903  0.27033  0.47839  1.0000
  C   C339      1.0  0.12702  0.78605  0.46537  1.0000
  C   C340      1.0  0.33784  0.12548  0.51709  1.0000
  C   C341      1.0  0.87519  0.21547  0.52056  1.0000
  C   C342      1.0  0.29275  0.50152  0.43348  1.0000
  C   C343      1.0  0.50271  0.78326  0.42121  1.0000
  C   C344      1.0  0.21609  0.70597  0.43344  1.0000
  C   C345      1.0  0.71417  0.49748  0.44957  1.0000
  C   C346      1.0  0.78286  0.29212  0.56223  1.0000
  C   C347      1.0  0.31358  0.52048  0.44119  1.0000
  C   C348      1.0  0.48318  0.78601  0.43366  1.0000
  C   C349      1.0  0.21273  0.68506  0.44177  1.0000
  C   C350      1.0  0.69257  0.47929  0.45087  1.0000
  C   C351      1.0  0.78527  0.31358  0.56783  1.0000
  C   C352      1.0  0.31142  0.54341  0.54273  1.0000
  C   C353      1.0  0.45854  0.77359  0.52500  1.0000
  C   C354      1.0  0.22549  0.68513  0.51615  1.0000
  C   C355      1.0  0.68291  0.46338  0.54224  1.0000
  C   C356      1.0  0.77261  0.31424  0.49564  1.0000
  C   C357      1.0  0.28768  0.54647  0.64214  1.0000
  C   C358      1.0  0.45436  0.75850  0.60419  1.0000
  C   C359      1.0  0.24141  0.70654  0.57895  1.0000
  C   C360      1.0  0.69538  0.46695  0.63419  1.0000
  C   C361      1.0  0.75781  0.29284  0.41982  1.0000
  C   C362      1.0  0.26676  0.52723  0.64015  1.0000
  C   C363      1.0  0.47388  0.75644  0.59716  1.0000
  C   C364      1.0  0.24361  0.72758  0.57954  1.0000
  C   C365      1.0  0.71692  0.48538  0.63423  1.0000
  C   C366      1.0  0.75661  0.27128  0.40598  1.0000
  C   C367      1.0  0.13129  0.30632  0.45697  1.0000
  C   C368      1.0  0.87547  0.69215  0.45291  1.0000
  C   C369      1.0  0.31048  0.17778  0.44776  1.0000
  C   C370      1.0  0.10795  0.29263  0.46027  1.0000
  C   C371      1.0  0.89923  0.70473  0.44143  1.0000
  C   C372      1.0  0.29787  0.18739  0.43881  1.0000
  C   C373      1.0  0.09137  0.30296  0.50365  1.0000
  C   C374      1.0  0.91108  0.69698  0.47495  1.0000
  C   C375      1.0  0.30561  0.21161  0.46704  1.0000
  C   C376      1.0  0.09881  0.32755  0.54742  1.0000
  C   C377      1.0  0.89799  0.67624  0.52280  1.0000
  C   C378      1.0  0.32577  0.22607  0.51284  1.0000
  C   C379      1.0  0.12189  0.34115  0.54764  1.0000
  C   C380      1.0  0.87424  0.66377  0.53460  1.0000
  C   C381      1.0  0.33792  0.21651  0.52559  1.0000
  C   C382      1.0  0.39354  0.62499  0.47970  1.0000
  C   C383      1.0  0.23641  0.60807  0.47475  1.0000
  C   C384      1.0  0.41438  0.62693  0.48481  1.0000
  C   C385      1.0  0.21598  0.58811  0.50745  1.0000
  C   C386      1.0  0.39488  0.58678  0.49506  1.0000
  C   C387      1.0  0.19182  0.60502  0.51501  1.0000
  C   C388      1.0  0.75690  0.02061  0.49293  1.0000
  C   C389      1.0  0.24578  0.98023  0.48130  1.0000
  C   C390      1.0  0.01603  0.26171  0.55134  1.0000
  C   C391      1.0  0.74563  0.03171  0.48226  1.0000
  C   C392      1.0  0.25562  0.97033  0.51599  1.0000
  C   C393      1.0  0.03055  0.28272  0.50573  1.0000
  C   C394      1.0  0.71213  0.99527  0.46062  1.0000
  C   C395      1.0  0.28804  0.00750  0.54855  1.0000
  C   C396      1.0  0.99863  0.27849  0.44397  1.0000
  C   C397      1.0  0.77372  0.33574  0.49385  1.0000
  C   C398      1.0  0.66075  0.44326  0.54874  1.0000
  C   C399      1.0  0.56325  0.22687  0.48409  1.0000
  C   C400      1.0  0.22326  0.66458  0.53439  1.0000
  C   C401      1.0  0.33263  0.56435  0.55216  1.0000
  C   C402      1.0  0.43733  0.77501  0.53739  1.0000
  C   C403      1.0  0.79256  0.45173  0.53270  1.0000
  C   C404      1.0  0.55149  0.34570  0.47767  1.0000
  C   C405      1.0  0.65353  0.20386  0.51337  1.0000
  C   C406      1.0  0.20295  0.55418  0.57602  1.0000
  C   C407      1.0  0.44814  0.65771  0.54671  1.0000
  C   C408      1.0  0.34603  0.79258  0.48671  1.0000
  C   C409      1.0  0.29246  0.22151  0.45583  1.0000
  C   C410      1.0  0.77782  0.06650  0.45304  1.0000
  C   C411      1.0  0.93612  0.71040  0.46098  1.0000
  C   C412      1.0  0.71228  0.78000  0.50341  1.0000
  C   C413      1.0  0.22405  0.93469  0.53294  1.0000
  C   C414      1.0  0.06764  0.28816  0.49564  1.0000
  C   C415      1.0  0.25572  0.30737  0.49283  1.0000
  C   C416      1.0  0.69325  0.94730  0.46244  1.0000
  C   C417      1.0  0.05651  0.74744  0.44454  1.0000
  C   C418      1.0  0.74504  0.69472  0.51312  1.0000
  C   C419      1.0  0.30889  0.05396  0.51383  1.0000
  C   C420      1.0  0.94660  0.25467  0.52396  1.0000
  N   N1        1.0  0.22951  0.41648  0.95520  1.0000
  N   N2        1.0  0.58353  0.80276  0.93161  1.0000
  N   N3        1.0  0.19187  0.76974  0.99998  1.0000
  N   N4        1.0  0.77359  0.57733  0.96497  1.0000
  N   N5        1.0  0.41645  0.19262  0.02970  1.0000
  N   N6        1.0  0.80746  0.22719  0.99072  1.0000
  N   N7        1.0  0.19315  0.41569  0.00409  1.0000
  N   N8        1.0  0.58044  0.77680  0.02622  1.0000
  N   N9        1.0  0.21912  0.80582  0.04738  1.0000
  N   N10       1.0  0.80236  0.58395  0.04405  1.0000
  N   N11       1.0  0.41778  0.22010  0.95827  1.0000
  N   N12       1.0  0.77897  0.19173  0.95347  1.0000
  N   N13       1.0  0.79363  0.35362  0.99233  1.0000
  N   N14       1.0  0.64521  0.43575  0.02414  1.0000
  N   N15       1.0  0.56436  0.21027  0.97986  1.0000
  N   N16       1.0  0.20811  0.64643  0.01633  1.0000
  N   N17       1.0  0.35413  0.56084  0.00935  1.0000
  N   N18       1.0  0.43642  0.79231  0.02290  1.0000
  N   N19       1.0  0.78154  0.43043  0.02201  1.0000
  N   N20       1.0  0.57096  0.34853  0.97226  1.0000
  N   N21       1.0  0.64868  0.21839  0.98955  1.0000
  N   N22       1.0  0.21593  0.57067  0.03641  1.0000
  N   N23       1.0  0.42896  0.64755  0.02462  1.0000
  N   N24       1.0  0.35363  0.78631  0.00655  1.0000
  N   N25       1.0  0.29748  0.24090  0.96681  1.0000
  N   N26       1.0  0.75427  0.05151  0.97700  1.0000
  N   N27       1.0  0.94589  0.70433  0.01177  1.0000
  N   N28       1.0  0.70204  0.75600  0.00876  1.0000
  N   N29       1.0  0.24238  0.94617  0.02758  1.0000
  N   N30       1.0  0.05484  0.29371  0.97310  1.0000
  N   N31       1.0  0.24602  0.28514  0.99116  1.0000
  N   N32       1.0  0.71388  0.95723  0.96224  1.0000
  N   N33       1.0  0.03864  0.75824  0.02731  1.0000
  N   N34       1.0  0.75313  0.71154  0.99027  1.0000
  N   N35       1.0  0.28736  0.03863  0.99510  1.0000
  N   N36       1.0  0.95827  0.24670  0.01891  1.0000
  N   N37       1.0  0.22790  0.42104  0.51629  1.0000
  N   N38       1.0  0.58144  0.80987  0.50100  1.0000
  N   N39       1.0  0.18973  0.77099  0.52252  1.0000
  N   N40       1.0  0.77024  0.58318  0.53742  1.0000
  N   N41       1.0  0.42293  0.19164  0.45774  1.0000
  N   N42       1.0  0.81159  0.22847  0.46067  1.0000
  N   N43       1.0  0.19913  0.41509  0.44184  1.0000
  N   N44       1.0  0.58665  0.77795  0.46975  1.0000
  N   N45       1.0  0.22105  0.80449  0.52047  1.0000
  N   N46       1.0  0.80678  0.58369  0.48470  1.0000
  N   N47       1.0  0.41510  0.22426  0.52997  1.0000
  N   N48       1.0  0.77960  0.19500  0.47688  1.0000
  N   N49       1.0  0.78837  0.35640  0.53900  1.0000
  N   N50       1.0  0.64722  0.43726  0.47059  1.0000
  N   N51       1.0  0.56402  0.20928  0.49257  1.0000
  N   N52       1.0  0.20929  0.64360  0.48501  1.0000
  N   N53       1.0  0.35459  0.56382  0.49045  1.0000
  N   N54       1.0  0.43871  0.78872  0.47517  1.0000
  N   N55       1.0  0.77742  0.43068  0.52623  1.0000
  N   N56       1.0  0.56808  0.35406  0.53398  1.0000
  N   N57       1.0  0.64678  0.22033  0.54206  1.0000
  N   N58       1.0  0.22037  0.57064  0.50764  1.0000
  N   N59       1.0  0.43357  0.64778  0.46850  1.0000
  N   N60       1.0  0.35490  0.77612  0.43426  1.0000
  N   N61       1.0  0.30016  0.24351  0.47224  1.0000
  N   N62       1.0  0.75471  0.05528  0.49343  1.0000
  N   N63       1.0  0.94615  0.70542  0.51468  1.0000
  N   N64       1.0  0.70330  0.75889  0.51004  1.0000
  N   N65       1.0  0.24629  0.94717  0.51657  1.0000
  N   N66       1.0  0.05343  0.29678  0.51141  1.0000
  N   N67       1.0  0.24571  0.28799  0.52873  1.0000
  N   N68       1.0  0.71318  0.96154  0.48533  1.0000
  N   N69       1.0  0.04005  0.75755  0.51463  1.0000
  N   N70       1.0  0.75509  0.71473  0.48619  1.0000
  N   N71       1.0  0.28800  0.04028  0.50621  1.0000
  N   N72       1.0  0.96075  0.24447  0.49063  1.0000
  C   C421      1.0  0.51206  0.21046  0.54939  1.0000
  C   C422      1.0  0.53745  0.22165  0.47459  1.0000
  C  Sn1       1.0  0.54646  0.24039  0.41328  1.0000
  C  Sn2       1.0  0.52969  0.24804  0.42733  1.0000
  C   C423      1.0  0.50432  0.23674  0.50249  1.0000
  C   C424      1.0  0.49551  0.21800  0.56337  1.0000
  H   H265      1.0  0.50524  0.19597  0.59658  1.0000
  O  Te1       1.0  0.57189  0.25137  0.33884  1.0000
  O  Te2       1.0  0.53819  0.26673  0.36718  1.0000
  H   H266      1.0  0.47584  0.20935  0.62138  1.0000
  Mg  Mg1       1.0  0.57449  0.27606  0.27579  1.0000
  C   C425      1.0  0.33941  0.21757  0.95777  1.0000
  C   C426      1.0  0.33202  0.19635  0.98342  1.0000
  C  Sn3       1.0  0.36600  0.13967  0.00208  1.0000
  C  Sn4       1.0  0.29212  0.18637  0.99483  1.0000
  C   C427      1.0  0.29969  0.20765  0.96898  1.0000
  C   C428      1.0  0.32326  0.22322  0.95052  1.0000
  H   H267      1.0  0.35765  0.22962  0.94338  1.0000
  O  Te3       1.0  0.35891  0.11854  0.02769  1.0000
  O  Te4       1.0  0.32602  0.13002  0.01302  1.0000
  H   H268      1.0  0.32899  0.23965  0.93055  1.0000
  Mg  Mg2       1.0  0.32486  0.10336  0.04552  1.0000
  C   C429      1.0  0.38796  0.61743  0.96098  1.0000
  C   C430      1.0  0.46390  0.58412  0.01506  1.0000
  C  Sn5       1.0  0.46673  0.56884  0.05237  1.0000
  C  Sn6       1.0  0.45077  0.54544  0.03505  1.0000
  C   C431      1.0  0.37489  0.57891  0.98073  1.0000
  C   C432      1.0  0.37222  0.59435  0.94380  1.0000
  H   H269      1.0  0.38590  0.62937  0.93231  1.0000
  O  Te5       1.0  0.48524  0.57681  0.10631  1.0000
  O  Te6       1.0  0.45319  0.52980  0.07142  1.0000
  H   H270      1.0  0.35795  0.58839  0.90182  1.0000
  Mg  Mg3       1.0  0.48121  0.54890  0.14070  1.0000
  C   C433      1.0  0.53491  0.25418  0.06038  1.0000
  C   C434      1.0  0.54112  0.23415  0.00156  1.0000
  C  Sn7       1.0  0.46927  0.25278  0.93451  1.0000
  C  Sn8       1.0  0.44834  0.25049  0.92631  1.0000
  C   C435      1.0  0.44229  0.27064  0.98536  1.0000
  C   C436      1.0  0.51427  0.25194  0.05227  1.0000
  H   H271      1.0  0.54612  0.27143  0.11206  1.0000
  O  Te7       1.0  0.47573  0.23295  0.87638  1.0000
  O  Te8       1.0  0.43369  0.22836  0.85983  1.0000
  H   H272      1.0  0.50947  0.26745  0.09768  1.0000
  Mg  Mg4       1.0  0.45001  0.20659  0.79669  1.0000
  C   C437      1.0  0.24224  0.35216  0.01860  1.0000
  C   C438      1.0  0.21956  0.34175  0.00871  1.0000
  C  Sn9       1.0  0.20661  0.31826  0.00167  1.0000
  C  Sn10      1.0  0.21660  0.30498  0.00465  1.0000
  C   C439      1.0  0.23929  0.31555  0.01469  1.0000
  C   C440      1.0  0.25210  0.33907  0.02163  1.0000
  H   H273      1.0  0.25214  0.37036  0.02407  1.0000
  O  Te9       1.0  0.12648  0.34913  0.99175  1.0000
  O  Te10      1.0  0.14654  0.32245  0.99783  1.0000
  H   H274      1.0  0.26965  0.34713  0.02940  1.0000
  Mg  Mg5       1.0  0.11633  0.31650  0.98514  1.0000
  C   C441      1.0  0.74314  0.28092  0.09207  1.0000
  C   C442      1.0  0.76132  0.27027  0.01041  1.0000
  C  Sn11      1.0  0.72883  0.32352  0.93440  1.0000
  C  Sn12      1.0  0.73571  0.34688  0.94051  1.0000
  C   C443      1.0  0.77488  0.31639  0.02264  1.0000
  C   C444      1.0  0.74991  0.30396  0.09822  1.0000
  H   H275      1.0  0.72382  0.27131  0.15065  1.0000
  O  Te11      1.0  0.74676  0.31261  0.85327  1.0000
  O  Te12      1.0  0.76058  0.35953  0.86565  1.0000
  H   H276      1.0  0.73584  0.31221  0.16155  1.0000
  Mg  Mg6       1.0  0.77821  0.33708  0.76997  1.0000
  C   C445      1.0  0.58726  0.40154  0.53334  1.0000
  C   C446      1.0  0.58645  0.37939  0.50631  1.0000
  C  Sn13      1.0  0.60724  0.37586  0.47047  1.0000
  C  Sn14      1.0  0.62921  0.39490  0.46165  1.0000
  C   C447      1.0  0.62983  0.41699  0.48902  1.0000
  C   C448      1.0  0.60893  0.42032  0.52474  1.0000
  H   H277      1.0  0.57108  0.40412  0.56108  1.0000
  O  Te13      1.0  0.60611  0.35362  0.44373  1.0000
  O  Te14      1.0  0.65026  0.39186  0.42611  1.0000
  H   H278      1.0  0.60955  0.43747  0.54578  1.0000
  Mg  Mg7       1.0  0.63961  0.35825  0.39916  1.0000
  C   C449      1.0  0.87786  0.69682  0.97861  1.0000
  C   C450      1.0  0.86408  0.67418  0.99244  1.0000
  C  Sn15      1.0  0.93057  0.62119  0.01371  1.0000
  C  Sn16      1.0  0.95379  0.63210  0.02128  1.0000
  C   C451      1.0  0.96742  0.65475  0.00745  1.0000
  C   C452      1.0  0.90076  0.70759  0.98613  1.0000
  H   H279      1.0  0.87077  0.70599  0.96222  1.0000
  O  Te15      1.0  0.91657  0.59859  0.02724  1.0000
  O  Te16      1.0  0.96320  0.62051  0.04253  1.0000
  H   H280      1.0  0.91142  0.72512  0.97555  1.0000
  Mg  Mg8       1.0  0.93726  0.58994  0.05478  1.0000
  C   C453      1.0  0.98766  0.70855  0.01095  1.0000
  C   C454      1.0  0.97161  0.71608  0.01916  1.0000
  C  Sn17      1.0  0.97887  0.73875  0.01695  1.0000
  C  Sn18      1.0  0.00265  0.75413  0.00627  1.0000
  C   C455      1.0  0.96108  0.78742  0.99799  1.0000
  C   C456      1.0  0.01113  0.72371  0.00034  1.0000
  H   H281      1.0  0.98190  0.69097  0.01267  1.0000
  O  Te17      1.0  0.96260  0.74599  0.02532  1.0000
  O  Te18      1.0  0.01038  0.77688  0.00378  1.0000
  H   H282      1.0  0.96606  0.75887  0.99386  1.0000
  Mg  Mg9       1.0  0.98159  0.77863  0.01796  1.0000
  C   C457      1.0  0.81866  0.10756  0.40346  1.0000
  C   C458      1.0  0.79393  0.09407  0.46838  1.0000
  C  Sn19      1.0  0.77504  0.10350  0.54357  1.0000
  C  Sn20      1.0  0.78108  0.12686  0.55372  1.0000
  C   C459      1.0  0.80588  0.14020  0.48828  1.0000
  C   C460      1.0  0.82463  0.13059  0.41336  1.0000
  H   H283      1.0  0.83318  0.10013  0.34540  1.0000
  O  Te19      1.0  0.75042  0.08979  0.60785  1.0000
  O  Te20      1.0  0.76256  0.13671  0.62815  1.0000
  H   H284      1.0  0.84378  0.14103  0.36300  1.0000
  Mg  Mg10      1.0  0.73176  0.11104  0.69758  1.0000
  C   C461      1.0  0.49619  0.79195  0.00506  1.0000
  C   C462      1.0  0.44073  0.81303  0.99297  1.0000
  C  Sn21      1.0  0.42182  0.79179  0.98356  1.0000
  C  Sn22      1.0  0.40049  0.79052  0.98627  1.0000
  C   C463      1.0  0.39863  0.81053  0.99827  1.0000
  C   C464      1.0  0.47517  0.79070  0.00768  1.0000
  H   H285      1.0  0.51092  0.80832  0.01224  1.0000
  O  Te21      1.0  0.42415  0.77207  0.97159  1.0000
  O  Te22      1.0  0.38131  0.76951  0.97697  1.0000
  H   H286      1.0  0.47359  0.80610  0.01692  1.0000
  Mg  Mg11      1.0  0.39307  0.74744  0.96214  1.0000
  C   C465      1.0  0.75044  0.75521  0.53363  1.0000
  C   C466      1.0  0.74348  0.73140  0.51009  1.0000
  C  Sn23      1.0  0.72271  0.71566  0.47604  1.0000
  C  Sn24      1.0  0.70869  0.72397  0.46537  1.0000
  C   C467      1.0  0.71581  0.74781  0.48899  1.0000
  C   C468      1.0  0.73662  0.76341  0.52307  1.0000
  H   H287      1.0  0.76654  0.76727  0.55990  1.0000
  O  Te23      1.0  0.71601  0.69194  0.45292  1.0000
  O  Te24      1.0  0.68786  0.70862  0.43142  1.0000
  H   H288      1.0  0.74202  0.78184  0.54117  1.0000
  Mg  Mg12      1.0  0.68614  0.67787  0.40949  1.0000
  C   C469      1.0  0.10640  0.32878  0.97778  1.0000
  C   C470      1.0  0.09216  0.30659  0.99997  1.0000
  C  Sn25      1.0  0.15723  0.25492  0.04427  1.0000
  C  Sn26      1.0  0.17947  0.26672  0.06673  1.0000
  C   C471      1.0  0.19358  0.28892  0.04437  1.0000
  C   C472      1.0  0.12834  0.34043  0.99998  1.0000
  H   H289      1.0  0.10041  0.33693  0.94354  1.0000
  O  Te25      1.0  0.14278  0.23274  0.06587  1.0000
  O  Te26      1.0  0.18746  0.25645  0.11107  1.0000
  H   H290      1.0  0.13936  0.35762  0.98293  1.0000
  Mg  Mg13      1.0  0.16142  0.22598  0.12624  1.0000
  C   C473      1.0  0.80885  0.40983  0.47432  1.0000
  C   C474      1.0  0.78778  0.41344  0.51543  1.0000
  C  Sn27      1.0  0.76441  0.39795  0.58401  1.0000
  C  Sn28      1.0  0.76215  0.37850  0.61187  1.0000
  C   C475      1.0  0.78333  0.37506  0.57044  1.0000
  C   C476      1.0  0.80663  0.39067  0.50182  1.0000
  H   H291      1.0  0.82687  0.42191  0.42132  1.0000
  O  Te27      1.0  0.74356  0.40180  0.62430  1.0000
  O  Te28      1.0  0.73902  0.36275  0.68032  1.0000
  H   H292      1.0  0.82293  0.38788  0.47011  1.0000
  Mg  Mg14      1.0  0.71607  0.37545  0.71462  1.0000
  C   C477      1.0  0.71258  0.70925  0.96398  1.0000
  C   C478      1.0  0.73479  0.71769  0.97661  1.0000
  C  Sn29      1.0  0.80483  0.70076  0.01606  1.0000
  C  Sn30      1.0  0.79489  0.71663  0.04335  1.0000
  C   C479      1.0  0.77265  0.70801  0.03054  1.0000
  C   C480      1.0  0.70276  0.72488  0.99094  1.0000
  H   H293      1.0  0.70299  0.69059  0.93344  1.0000
  O  Te29      1.0  0.82700  0.70890  0.02811  1.0000
  O  Te30      1.0  0.80703  0.74076  0.08301  1.0000
  H   H294      1.0  0.68556  0.71835  0.98129  1.0000
  Mg  Mg15      1.0  0.83670  0.74333  0.08517  1.0000
  C   C481      1.0  0.21714  0.88221  0.06169  1.0000
  C   C482      1.0  0.19562  0.86518  0.04434  1.0000
  C  Sn31      1.0  0.12490  0.91029  0.99809  1.0000
  C  Sn32      1.0  0.13344  0.93186  0.96871  1.0000
  C   C483      1.0  0.15500  0.94878  0.98627  1.0000
  C   C484      1.0  0.22558  0.90350  0.03267  1.0000
  H   H295      1.0  0.22727  0.87888  0.09749  1.0000
  O  Te31      1.0  0.10343  0.89309  0.98138  1.0000
  O  Te32      1.0  0.12059  0.93643  0.92228  1.0000
  H   H296      1.0  0.24225  0.91668  0.04598  1.0000
  Mg  Mg16      1.0  0.09233  0.90752  0.91567  1.0000
  C   C485      1.0  0.25423  0.24441  0.90223  1.0000
  C   C486      1.0  0.25658  0.26848  0.97758  1.0000
  C  Sn33      1.0  0.33205  0.24346  0.04352  1.0000
  C  Sn34      1.0  0.34794  0.23514  0.03361  1.0000
  C   C487      1.0  0.28795  0.25202  0.95787  1.0000
  C   C488      1.0  0.26989  0.23619  0.89234  1.0000
  H   H297      1.0  0.24027  0.23216  0.85144  1.0000
  O  Te33      1.0  0.33415  0.26745  0.11844  1.0000
  O  Te34      1.0  0.36607  0.25073  0.09844  1.0000
  H   H298      1.0  0.26809  0.21756  0.83391  1.0000
  Mg  Mg17      1.0  0.36170  0.28178  0.18861  1.0000
  C   C489      1.0  0.61402  0.23350  0.45225  1.0000
  C   C490      1.0  0.59174  0.21548  0.46780  1.0000
  C  Sn35      1.0  0.58578  0.19733  0.52455  1.0000
  C  Sn36      1.0  0.60246  0.19729  0.56647  1.0000
  C   C491      1.0  0.62468  0.21542  0.55061  1.0000
  C   C492      1.0  0.63047  0.23348  0.49364  1.0000
  H   H299      1.0  0.61849  0.24749  0.40827  1.0000
  O  Te35      1.0  0.56345  0.17946  0.53928  1.0000
  O  Te36      1.0  0.59695  0.17938  0.62356  1.0000
  H   H300      1.0  0.64771  0.24744  0.48173  1.0000
  Mg  Mg18      1.0  0.56425  0.15889  0.62257  1.0000
  C   C493      1.0  0.47223  0.69651  0.40927  1.0000
  C   C494      1.0  0.46838  0.68175  0.48848  1.0000
  C  Sn37      1.0  0.48273  0.68861  0.57614  1.0000
  C  Sn38      1.0  0.50127  0.71067  0.58450  1.0000
  C   C495      1.0  0.50497  0.72532  0.50495  1.0000
  C   C496      1.0  0.49051  0.71828  0.41751  1.0000
  H   H301      1.0  0.46104  0.69107  0.34171  1.0000
  O  Te37      1.0  0.47865  0.67364  0.65450  1.0000
  O  Te38      1.0  0.51588  0.71797  0.67133  1.0000
  H   H302      1.0  0.49349  0.72972  0.35631  1.0000
  Mg  Mg19      1.0  0.50330  0.69140  0.75759  1.0000
  C   C497      1.0  0.29916  0.77323  0.08643  1.0000
  C   C498      1.0  0.26365  0.82922  0.99574  1.0000
  C  Sn39      1.0  0.26332  0.84252  0.92542  1.0000
  C  Sn40      1.0  0.24052  0.84073  0.94654  1.0000
  C   C499      1.0  0.27611  0.78470  0.03760  1.0000
  C   C500      1.0  0.27666  0.77147  0.10738  1.0000
  H   H303      1.0  0.29958  0.76300  0.14051  1.0000
  O  Te39      1.0  0.28547  0.85741  0.83512  1.0000
  O  Te40      1.0  0.23965  0.85383  0.87765  1.0000
  H   H304      1.0  0.25962  0.75987  0.17770  1.0000
  Mg  Mg20      1.0  0.27477  0.87167  0.76506  1.0000
  C   C501      1.0  0.65049  0.89080  0.46059  1.0000
  C   C502      1.0  0.65900  0.87959  0.49311  1.0000
  C  Sn41      1.0  0.67950  0.89189  0.53342  1.0000
  C  Sn42      1.0  0.69166  0.91584  0.54128  1.0000
  C   C503      1.0  0.68299  0.92689  0.50866  1.0000
  C   C504      1.0  0.66247  0.91442  0.46838  1.0000
  H   H305      1.0  0.63461  0.88115  0.42953  1.0000
  O  Te41      1.0  0.68776  0.88042  0.56549  1.0000
  O  Te42      1.0  0.71218  0.92854  0.58134  1.0000
  H   H306      1.0  0.65588  0.92311  0.44333  1.0000
  Mg  Mg21      1.0  0.71648  0.90519  0.61472  1.0000
  C   C505      1.0  0.24608  0.34871  0.44500  1.0000
  C   C506      1.0  0.22096  0.34114  0.48801  1.0000
  C  Sn43      1.0  0.20500  0.32199  0.55395  1.0000
  C  Sn44      1.0  0.21441  0.31025  0.57717  1.0000
  C   C507      1.0  0.23957  0.31796  0.53388  1.0000
  C   C508      1.0  0.25538  0.33714  0.46793  1.0000
  H   H307      1.0  0.25832  0.36355  0.39407  1.0000
  O  Te43      1.0  0.17995  0.31466  0.59619  1.0000
  O  Te44      1.0  0.19886  0.29107  0.64291  1.0000
  H   H308      1.0  0.27482  0.34300  0.43475  1.0000
  Mg  Mg22      1.0  0.16613  0.28766  0.68142  1.0000
  C   C509      1.0  0.71323  0.99548  0.92766  1.0000
  C   C510      1.0  0.72080  0.98211  0.94795  1.0000
  C  Sn45      1.0  0.74039  0.99272  0.99666  1.0000
  C  Sn46      1.0  0.81009  0.97619  0.02555  1.0000
  C   C511      1.0  0.80237  0.98942  0.00503  1.0000
  C   C512      1.0  0.72525  0.01960  0.95619  1.0000
  H   H309      1.0  0.69805  0.98712  0.88997  1.0000
  O  Te45      1.0  0.80522  0.93812  0.01629  1.0000
  O  Te46      1.0  0.82971  0.98725  0.07439  1.0000
  H   H310      1.0  0.71938  0.02996  0.94061  1.0000
  Mg  Mg23      1.0  0.83293  0.96122  0.08456  1.0000
  C   C513      1.0  0.76765  0.46315  0.43620  1.0000
  C   C514      1.0  0.78453  0.46636  0.48908  1.0000
  C  Sn47      1.0  0.79876  0.48900  0.55334  1.0000
  C  Sn48      1.0  0.79599  0.50875  0.56477  1.0000
  C   C515      1.0  0.77903  0.50536  0.51166  1.0000
  C   C516      1.0  0.76489  0.48263  0.44750  1.0000
  H   H311      1.0  0.75670  0.44557  0.38665  1.0000
  O  Te47      1.0  0.81555  0.49188  0.60554  1.0000
  O  Te48      1.0  0.80997  0.53157  0.62857  1.0000
  H   H312      1.0  0.75181  0.48015  0.40668  1.0000
  Mg  Mg24      1.0  0.83041  0.52647  0.68352  1.0000
  C   C517      1.0  0.30681  0.08897  0.95665  1.0000
  C   C518      1.0  0.37146  0.03728  0.00390  1.0000
  C  Sn49      1.0  0.39075  0.05003  0.05797  1.0000
  C  Sn50      1.0  0.40306  0.07394  0.06477  1.0000
  C   C519      1.0  0.39575  0.08450  0.01735  1.0000
  C   C520      1.0  0.31893  0.11256  0.96339  1.0000
  H   H313      1.0  0.29185  0.07897  0.91499  1.0000
  O  Te49      1.0  0.39767  0.03907  0.10466  1.0000
  O  Te50      1.0  0.42239  0.08710  0.11839  1.0000
  H   H314      1.0  0.31339  0.12085  0.92692  1.0000
  Mg  Mg25      1.0  0.42509  0.06434  0.16900  1.0000
  C   C521      1.0  0.70018  0.82446  0.50989  1.0000
  C   C522      1.0  0.67708  0.81423  0.50665  1.0000
  C  Sn51      1.0  0.66327  0.79138  0.51528  1.0000
  C  Sn52      1.0  0.67279  0.77858  0.52742  1.0000
  C   C523      1.0  0.69591  0.78897  0.53070  1.0000
  C   C524      1.0  0.70959  0.81184  0.52194  1.0000
  H   H315      1.0  0.71076  0.84216  0.50321  1.0000
  O  Te51      1.0  0.64023  0.78143  0.51182  1.0000
  O  Te52      1.0  0.65937  0.75572  0.53629  1.0000
  H   H316      1.0  0.72746  0.81976  0.52457  1.0000
  Mg  Mg26      1.0  0.62889  0.74976  0.52711  1.0000
  C   C525      1.0  0.18479  0.89178  0.54069  1.0000
  C   C526      1.0  0.20778  0.90761  0.53592  1.0000
  C  Sn53      1.0  0.22517  0.90016  0.51162  1.0000
  C  Sn54      1.0  0.21938  0.87641  0.49172  1.0000
  C   C527      1.0  0.19633  0.86071  0.49655  1.0000
  C   C528      1.0  0.17906  0.86835  0.52100  1.0000
  H   H317      1.0  0.17143  0.89769  0.55950  1.0000
  O  Te53      1.0  0.24806  0.91621  0.50725  1.0000
  O  Te54      1.0  0.23642  0.86850  0.46718  1.0000
  H   H318      1.0  0.16127  0.85609  0.52457  1.0000
  Mg  Mg27      1.0  0.26513  0.89702  0.47069  1.0000
  C   C529      1.0  0.65030  0.90381  0.03958  1.0000
  C   C530      1.0  0.67420  0.91900  0.01311  1.0000
  C  Sn55      1.0  0.63518  0.95184  0.96460  1.0000
  C  Sn56      1.0  0.62958  0.92802  0.94221  1.0000
  C   C531      1.0  0.60562  0.91297  0.96888  1.0000
  C   C532      1.0  0.64476  0.88032  0.01746  1.0000
  H   H319      1.0  0.63610  0.91027  0.07707  1.0000
  O  Te55      1.0  0.65897  0.96725  0.93875  1.0000
  O  Te56      1.0  0.64771  0.91941  0.89371  1.0000
  H   H320      1.0  0.62626  0.86856  0.03782  1.0000
  Mg  Mg28      1.0  0.67737  0.94723  0.87364  1.0000
  C   C533      1.0  0.69431  0.19058  0.40109  1.0000
  C   C534      1.0  0.67779  0.20401  0.51298  1.0000
  C  Sn57      1.0  0.68534  0.22781  0.60928  1.0000
  C  Sn58      1.0  0.70990  0.23832  0.59293  1.0000
  C   C535      1.0  0.72630  0.22473  0.48053  1.0000
  C   C536      1.0  0.71854  0.20093  0.38483  1.0000
  H   H321      1.0  0.68832  0.17217  0.32696  1.0000
  O  Te57      1.0  0.66860  0.24097  0.72052  1.0000
  O  Te58      1.0  0.71794  0.26207  0.68759  1.0000
  H   H322      1.0  0.73134  0.19054  0.29811  1.0000
  Mg  Mg29      1.0  0.68827  0.27269  0.82216  1.0000
  C   C537      1.0  0.28628  0.29053  0.55392  1.0000
  C   C538      1.0  0.26650  0.28153  0.51033  1.0000
  C  Sn59      1.0  0.25573  0.25723  0.45143  1.0000
  C  Sn60      1.0  0.26497  0.24170  0.43607  1.0000
  C   C539      1.0  0.28475  0.25088  0.48013  1.0000
  C   C540      1.0  0.29540  0.27523  0.53888  1.0000
  H   H323      1.0  0.29451  0.30937  0.59948  1.0000
  O  Te59      1.0  0.23599  0.24854  0.40837  1.0000
  O  Te60      1.0  0.25455  0.21734  0.37761  1.0000
  H   H324      1.0  0.31070  0.28219  0.57274  1.0000
  Mg  Mg30      1.0  0.22798  0.21398  0.33472  1.0000
  C   C541      1.0  0.19952  0.49259  0.94434  1.0000
  C   C542      1.0  0.21760  0.49605  0.98672  1.0000
  C  Sn61      1.0  0.28754  0.47780  0.06700  1.0000
  C  Sn62      1.0  0.28173  0.49739  0.10544  1.0000
  C   C543      1.0  0.26360  0.49374  0.06264  1.0000
  C   C544      1.0  0.19377  0.51191  0.98228  1.0000
  H   H325      1.0  0.18997  0.47493  0.88226  1.0000
  O  Te61      1.0  0.30556  0.48094  0.10839  1.0000
  O  Te62      1.0  0.29387  0.52030  0.18569  1.0000
  H   H326      1.0  0.17976  0.50923  0.94959  1.0000
  Mg  Mg31      1.0  0.31701  0.51556  0.21675  1.0000
  C   C545      1.0  0.76476  0.39528  0.15777  1.0000
  C   C546      1.0  0.78217  0.41036  0.05224  1.0000
  C  Sn63      1.0  0.74774  0.44777  0.91880  1.0000
  C  Sn64      1.0  0.75344  0.42872  0.89077  1.0000
  C   C547      1.0  0.73589  0.41373  0.99697  1.0000
  C   C548      1.0  0.77036  0.37649  0.13017  1.0000
  H   H327      1.0  0.74693  0.39817  0.26077  1.0000
  O  Te63      1.0  0.76492  0.46301  0.81462  1.0000
  O  Te64      1.0  0.77636  0.42474  0.75828  1.0000
  H   H328      1.0  0.75688  0.36480  0.21177  1.0000
  Mg  Mg32      1.0  0.79364  0.45032  0.65077  1.0000
  C   C549      1.0  0.00072  0.75329  0.48114  1.0000
  C   C550      1.0  0.01362  0.74761  0.51964  1.0000
  C  Sn65      1.0  0.00430  0.72616  0.54852  1.0000
  C  Sn66      1.0  0.98164  0.71013  0.53854  1.0000
  C   C551      1.0  0.96888  0.71597  0.49981  1.0000
  C   C552      1.0  0.97837  0.73749  0.47120  1.0000
  H   H329      1.0  0.00806  0.76993  0.45891  1.0000
  O  Te65      1.0  0.01742  0.72076  0.58691  1.0000
  O  Te66      1.0  0.97191  0.68857  0.56676  1.0000
  H   H330      1.0  0.96839  0.74187  0.44128  1.0000
  Mg  Mg33      1.0  0.99661  0.68921  0.61507  1.0000
  C   C553      1.0  0.71550  0.23099  0.89317  1.0000
  C   C554      1.0  0.72273  0.22190  0.95240  1.0000
  C  Sn67      1.0  0.76292  0.16405  0.04176  1.0000
  C  Sn68      1.0  0.73793  0.15617  0.07215  1.0000
  C   C555      1.0  0.73089  0.16536  0.01225  1.0000
  C   C556      1.0  0.69086  0.22322  0.92303  1.0000
  H   H331      1.0  0.72902  0.24404  0.82405  1.0000
  O  Te67      1.0  0.77045  0.15516  0.10010  1.0000
  O  Te68      1.0  0.72025  0.13933  0.16105  1.0000
  H   H332      1.0  0.68526  0.23025  0.87708  1.0000
  Mg  Mg34      1.0  0.73953  0.13249  0.21506  1.0000
  C   C557      1.0  0.79787  0.68781  0.43609  1.0000
  C   C558      1.0  0.78934  0.66829  0.48732  1.0000
  C  Sn69      1.0  0.76439  0.65523  0.54264  1.0000
  C  Sn70      1.0  0.74771  0.66188  0.54656  1.0000
  C   C559      1.0  0.75642  0.68143  0.49492  1.0000
  C   C560      1.0  0.78143  0.69437  0.43985  1.0000
  H   H333      1.0  0.81722  0.69782  0.39338  1.0000
  O  Te69      1.0  0.75618  0.63578  0.59344  1.0000
  O  Te70      1.0  0.72268  0.64914  0.60122  1.0000
  H   H334      1.0  0.78803  0.70948  0.40008  1.0000
  Mg  Mg35      1.0  0.72036  0.62401  0.65785  1.0000
  C   C561      1.0  0.41115  0.80820  0.48405  1.0000
  C   C562      1.0  0.41649  0.79134  0.48507  1.0000
  C  Sn71      1.0  0.40139  0.76805  0.45843  1.0000
  C  Sn72      1.0  0.38057  0.76157  0.43023  1.0000
  C   C563      1.0  0.37539  0.77857  0.42933  1.0000
  C   C564      1.0  0.39062  0.80183  0.45618  1.0000
  H   H335      1.0  0.42294  0.82620  0.50473  1.0000
  O  Te71      1.0  0.40699  0.75142  0.45992  1.0000
  O  Te72      1.0  0.36517  0.73842  0.40319  1.0000
  H   H336      1.0  0.38649  0.81488  0.45527  1.0000
  Mg  Mg36      1.0  0.38046  0.72211  0.41695  1.0000
