data_image0
_chemical_formula_structural       H120C204N72SnCSn2CSnTe4Mg2SnCSn2CSnTe4Mg2SnCSn2CSnTe4Mg2SnCSn2CSnTe4Mg2SnCSn2CSnTe4Mg2SnCSn2CSnTe4Mg2SnCSn2CSnTe4Mg2SnCSn2CSnTe4Mg2SnCSn2CSnTe4Mg2SnCSn2CSnTe4Mg2SnCSn2CSnTe4Mg2SnCSn2CSnTe4Mg2SnCSn2CSnTe4Mg2SnCSn2CSnTe4Mg2SnCSn2CSnTe4Mg2SnCSn2CSnTe4Mg2SnCSn2CSnTe4Mg2SnCSn2CSnTe4Mg2SnCSn2CSnTe4Mg2SnCSn2CSnTe4Mg2SnCSn2CSnTe4Mg2SnCSn2CSnTe4Mg2SnCSn2CSnTe4Mg2SnCSn2CSnTe4Mg2SnCSn2CSnTe4Mg2SnCSn2CSnTe4Mg2SnCSn2CSnTe4Mg2SnCSn2CSnTe4Mg2SnCSn2CSnTe4Mg2SnCSn2CSnTe4Mg2SnCSn2CSnTe4Mg2SnCSn2CSnTe4Mg2SnCSn2CSnTe4Mg2SnCSn2CSnTe4Mg2SnCSn2CSnTe4Mg2SnCSn2CSnTe4Mg2SnCSn2CSnTe4Mg2SnCSn2CSnTe4Mg2SnCSn2CSnTe4Mg2SnCSn2CSnTe4Mg2SnCSn2CSnTe4Mg2SnCSn2CSnTe4Mg2SnCSn2CSnTe4Mg2SnCSn2CSnTe4Mg2SnCSn2CSnTe4Mg2SnCSn2CSnTe4Mg2SnCSn2CSnTe4Mg2SnCSn2CSnTe4Mg2SnCSn2CSnTe4Mg2SnCSn2CSnTe4Mg2SnCSn2CSnTe4Mg2SnCSn2CSnTe4Mg2SnCSn2CSnTe4Mg2SnCSn2CSnTe4Mg2SnCSn2CSnTe4Mg2SnCSn2CSnTe4Mg2SnCSn2CSnTe4Mg2SnCSn2CSnTe4Mg2SnCSn2CSnTe4Mg2SnCSn2CSnTe4Mg2SnCSn2CSnTe4Mg2SnCSn2CSnTe4Mg2SnCSn2CSnTe4Mg2SnCSn2CSnTe4Mg2SnCSn2CSnTe4Mg2SnCSn2CSnTe4Mg2SnCSn2CSnTe4Mg2SnCSn2CSnTe4Mg2SnCSn2CSnTe4Mg2SnCSn2CSnTe4Mg2SnCSn2CSnTe4Mg2SnCSn2CSnTe4Mg2
_chemical_formula_sum              "H120 C348 N72 Sn288 Te288 Mg144"
_cell_length_a       69.1783
_cell_length_b       69.3234
_cell_length_c       9.38135
_cell_angle_alpha    121.047
_cell_angle_beta     54.8252
_cell_angle_gamma    120.133

_symmetry_space_group_name_H-M    'P1'
_space_group_IT_number       1

loop_
  _space_group_symop_operation_xyz
  'x, y, z'

loop_
  _atom_site_type_symbol
  _atom_site_label
  _atom_site_symmetry_multiplicity
  _atom_site_fract_x
  _atom_site_fract_y
  _atom_site_fract_z
  _atom_site_occupancy
  H   H1        1.0  0.18836  0.45769  0.04844  1.0000
  H   H2        1.0  0.53734  0.73586  0.06777  1.0000
  H   H3        1.0  0.26084  0.81217  0.08030  1.0000
  H   H4        1.0  0.80256  0.54644  0.09336  1.0000
  H   H5        1.0  0.45958  0.26228  0.93372  1.0000
  H   H6        1.0  0.73716  0.18706  0.92744  1.0000
  H   H7        1.0  0.22749  0.38182  0.98598  1.0000
  H   H8        1.0  0.61791  0.84057  0.96429  1.0000
  H   H9        1.0  0.15489  0.76989  0.99060  1.0000
  H   H10       1.0  0.77310  0.61474  0.97988  1.0000
  H   H11       1.0  0.38280  0.15429  0.98149  1.0000
  H   H12       1.0  0.84412  0.22598  0.98331  1.0000
  H   H13       1.0  0.16588  0.31912  0.05670  1.0000
  H   H14       1.0  0.67947  0.85241  0.03511  1.0000
  H   H15       1.0  0.14688  0.82943  0.01587  1.0000
  H   H16       1.0  0.83011  0.68117  0.00074  1.0000
  H   H17       1.0  0.31596  0.14652  0.99575  1.0000
  H   H18       1.0  0.85114  0.16719  0.98018  1.0000
  H   H19       1.0  0.26845  0.45821  0.93099  1.0000
  H   H20       1.0  0.54397  0.79477  0.87749  1.0000
  H   H21       1.0  0.20124  0.73219  0.97107  1.0000
  H   H22       1.0  0.73812  0.53227  0.93581  1.0000
  H   H23       1.0  0.45701  0.19979  0.07490  1.0000
  H   H24       1.0  0.80021  0.26505  0.01225  1.0000
  H   H25       1.0  0.17613  0.40870  0.00702  1.0000
  H   H26       1.0  0.58214  0.77186  0.10267  1.0000
  H   H27       1.0  0.22511  0.82358  0.08957  1.0000
  H   H28       1.0  0.81411  0.59370  0.10549  1.0000
  H   H29       1.0  0.41487  0.22620  0.89696  1.0000
  H   H30       1.0  0.77145  0.17407  0.92574  1.0000
  H   H31       1.0  0.16185  0.37321  0.98915  1.0000
  H   H32       1.0  0.62282  0.78607  0.01966  1.0000
  H   H33       1.0  0.21125  0.83638  0.02527  1.0000
  H   H34       1.0  0.83680  0.62358  0.00669  1.0000
  H   H35       1.0  0.37453  0.21155  0.98506  1.0000
  H   H36       1.0  0.78541  0.16174  0.99742  1.0000
  H   H37       1.0  0.75564  0.33798  0.07183  1.0000
  H   H38       1.0  0.67075  0.41848  0.91408  1.0000
  H   H39       1.0  0.57465  0.24607  0.02386  1.0000
  H   H40       1.0  0.24598  0.65664  0.85051  1.0000
  H   H41       1.0  0.33406  0.57275  0.98337  1.0000
  H   H42       1.0  0.41907  0.76052  0.08076  1.0000
  H   H43       1.0  0.81820  0.44936  0.88863  1.0000
  H   H44       1.0  0.53974  0.35967  0.10119  1.0000
  H   H45       1.0  0.63518  0.19257  0.10677  1.0000
  H   H46       1.0  0.18707  0.54158  0.97500  1.0000
  H   H47       1.0  0.45986  0.63772  0.92558  1.0000
  H   H48       1.0  0.36504  0.81423  0.91698  1.0000
  H   H49       1.0  0.26824  0.21016  0.01103  1.0000
  H   H50       1.0  0.78670  0.05912  0.99260  1.0000
  H   H51       1.0  0.94257  0.72539  0.93061  1.0000
  H   H52       1.0  0.72713  0.79014  0.03576  1.0000
  H   H53       1.0  0.21294  0.93640  0.96869  1.0000
  H   H54       1.0  0.05548  0.27230  0.06706  1.0000
  H   H55       1.0  0.27388  0.31759  0.98156  1.0000
  H   H56       1.0  0.67708  0.95460  0.05734  1.0000
  H   H57       1.0  0.05446  0.73065  0.83794  1.0000
  H   H58       1.0  0.72513  0.67934  0.00987  1.0000
  H   H59       1.0  0.31067  0.05124  0.12046  1.0000
  H   H60       1.0  0.95392  0.27135  0.97867  1.0000
  H   H61       1.0  0.19802  0.45382  0.41105  1.0000
  H   H62       1.0  0.54793  0.73377  0.45229  1.0000
  H   H63       1.0  0.26552  0.80682  0.49652  1.0000
  H   H64       1.0  0.81108  0.54233  0.45207  1.0000
  H   H65       1.0  0.45179  0.26946  0.58803  1.0000
  H   H66       1.0  0.73529  0.19184  0.49343  1.0000
  H   H67       1.0  0.22814  0.38372  0.50325  1.0000
  H   H68       1.0  0.61782  0.84546  0.49777  1.0000
  H   H69       1.0  0.15602  0.77133  0.48019  1.0000
  H   H70       1.0  0.77294  0.61800  0.49723  1.0000
  H   H71       1.0  0.38364  0.15689  0.50147  1.0000
  H   H72       1.0  0.84558  0.22856  0.49739  1.0000
  H   H73       1.0  0.16828  0.31948  0.53113  1.0000
  H   H74       1.0  0.68126  0.85625  0.54517  1.0000
  H   H75       1.0  0.15269  0.83002  0.46062  1.0000
  H   H76       1.0  0.82983  0.68455  0.51387  1.0000
  H   H77       1.0  0.31583  0.15067  0.53756  1.0000
  H   H78       1.0  0.84805  0.17128  0.54658  1.0000
  H   H79       1.0  0.26234  0.46632  0.56489  1.0000
  H   H80       1.0  0.53674  0.80438  0.52268  1.0000
  H   H81       1.0  0.19472  0.73323  0.52494  1.0000
  H   H82       1.0  0.73055  0.54160  0.57521  1.0000
  H   H83       1.0  0.46828  0.19640  0.42634  1.0000
  H   H84       1.0  0.80647  0.26476  0.44090  1.0000
  H   H85       1.0  0.18709  0.40575  0.38422  1.0000
  H   H86       1.0  0.59261  0.76942  0.49162  1.0000
  H   H87       1.0  0.23168  0.82087  0.51063  1.0000
  H   H88       1.0  0.82343  0.59087  0.48785  1.0000
  H   H89       1.0  0.40657  0.23402  0.54849  1.0000
  H   H90       1.0  0.76832  0.18006  0.51116  1.0000
  H   H91       1.0  0.16476  0.37478  0.47013  1.0000
  H   H92       1.0  0.62715  0.78886  0.49146  1.0000
  H   H93       1.0  0.21014  0.83847  0.56178  1.0000
  H   H94       1.0  0.83902  0.62567  0.48603  1.0000
  H   H95       1.0  0.37842  0.21113  0.44522  1.0000
  H   H96       1.0  0.78983  0.16200  0.45518  1.0000
  H   H97       1.0  0.76114  0.33301  0.44396  1.0000
  H   H98       1.0  0.65577  0.43326  0.63212  1.0000
  H   H99       1.0  0.57843  0.24339  0.47991  1.0000
  H   H100      1.0  0.23468  0.66817  0.59656  1.0000
  H   H101      1.0  0.32827  0.58111  0.61830  1.0000
  H   H102      1.0  0.41934  0.76348  0.60745  1.0000
  H   H103      1.0  0.80825  0.45820  0.56404  1.0000
  H   H104      1.0  0.55182  0.35361  0.39900  1.0000
  H   H105      1.0  0.64362  0.18518  0.47055  1.0000
  H   H106      1.0  0.18328  0.55326  0.64743  1.0000
  H   H107      1.0  0.44654  0.65094  0.63832  1.0000
  H   H108      1.0  0.35411  0.81125  0.54967  1.0000
  H   H109      1.0  0.27549  0.20918  0.43746  1.0000
  H   H110      1.0  0.79134  0.05784  0.40021  1.0000
  H   H111      1.0  0.94569  0.72468  0.40138  1.0000
  H   H112      1.0  0.73104  0.79124  0.49031  1.0000
  H   H113      1.0  0.21100  0.94165  0.55515  1.0000
  H   H114      1.0  0.06311  0.26936  0.46933  1.0000
  H   H115      1.0  0.27588  0.31586  0.44099  1.0000
  H   H116      1.0  0.68362  0.95149  0.42531  1.0000
  H   H117      1.0  0.05333  0.72835  0.37421  1.0000
  H   H118      1.0  0.72521  0.68539  0.55116  1.0000
  H   H119      1.0  0.32032  0.04867  0.52518  1.0000
  H   H120      1.0  0.95161  0.27389  0.56234  1.0000
  C   C1        1.0  0.20607  0.45792  0.01902  1.0000
  C   C2        1.0  0.53887  0.74860  0.02478  1.0000
  C   C3        1.0  0.24806  0.79464  0.05609  1.0000
  C   C4        1.0  0.78894  0.54289  0.05298  1.0000
  C   C5        1.0  0.45904  0.24875  0.96561  1.0000
  C   C6        1.0  0.75076  0.20413  0.94620  1.0000
  C   C7        1.0  0.20898  0.43794  0.99538  1.0000
  C   C8        1.0  0.55915  0.76843  0.00468  1.0000
  C   C9        1.0  0.22741  0.79114  0.04449  1.0000
  C   C10       1.0  0.78787  0.56077  0.03325  1.0000
  C   C11       1.0  0.43933  0.22834  0.97852  1.0000
  C   C12       1.0  0.77126  0.20678  0.95525  1.0000
  C   C13       1.0  0.24876  0.47918  0.98337  1.0000
  C   C14       1.0  0.51993  0.76341  0.95826  1.0000
  C   C15       1.0  0.23438  0.75252  0.01646  1.0000
  C   C16       1.0  0.75232  0.51691  0.99427  1.0000
  C   C17       1.0  0.47904  0.23263  0.01261  1.0000
  C   C18       1.0  0.76645  0.24609  0.97379  1.0000
  C   C19       1.0  0.20891  0.37096  0.99979  1.0000
  C   C20       1.0  0.62778  0.83507  0.98716  1.0000
  C   C21       1.0  0.16172  0.78828  0.99988  1.0000
  C   C22       1.0  0.79054  0.62626  0.98782  1.0000
  C   C23       1.0  0.37135  0.16101  0.98444  1.0000
  C   C24       1.0  0.83734  0.20811  0.98467  1.0000
  C   C25       1.0  0.19858  0.34877  0.02091  1.0000
  C   C26       1.0  0.65019  0.84973  0.00028  1.0000
  C   C27       1.0  0.14821  0.79839  0.00382  1.0000
  C   C28       1.0  0.79971  0.64956  0.98990  1.0000
  C   C29       1.0  0.34785  0.14730  0.98959  1.0000
  C   C30       1.0  0.85081  0.19869  0.98870  1.0000
  C   C31       1.0  0.20643  0.40346  0.97884  1.0000
  C   C32       1.0  0.59419  0.79788  0.98577  1.0000
  C   C33       1.0  0.19768  0.79213  0.02008  1.0000
  C   C34       1.0  0.79278  0.59303  0.00266  1.0000
  C   C35       1.0  0.40491  0.19843  0.99042  1.0000
  C   C36       1.0  0.80083  0.20495  0.97604  1.0000
  C   C37       1.0  0.19541  0.37998  0.99306  1.0000
  C   C38       1.0  0.61775  0.81236  0.99832  1.0000
  C   C39       1.0  0.18420  0.80223  0.01362  1.0000
  C   C40       1.0  0.80358  0.61709  0.99814  1.0000
  C   C41       1.0  0.38090  0.18418  0.98348  1.0000
  C   C42       1.0  0.81406  0.19465  0.98332  1.0000
  C   C43       1.0  0.17429  0.33611  0.03743  1.0000
  C   C44       1.0  0.66254  0.84081  0.02012  1.0000
  C   C45       1.0  0.15760  0.82225  0.01646  1.0000
  C   C46       1.0  0.82269  0.66309  0.99741  1.0000
  C   C47       1.0  0.33442  0.15703  0.98767  1.0000
  C   C48       1.0  0.84055  0.17510  0.98534  1.0000
  C   C49       1.0  0.23148  0.43792  0.96450  1.0000
  C   C50       1.0  0.56143  0.78484  0.94564  1.0000
  C   C51       1.0  0.21021  0.76863  0.01386  1.0000
  C   C52       1.0  0.77007  0.55711  0.98444  1.0000
  C   C53       1.0  0.43817  0.21078  0.02078  1.0000
  C   C54       1.0  0.78933  0.22883  0.97834  1.0000
  C   C55       1.0  0.25114  0.45842  0.95674  1.0000
  C   C56       1.0  0.54196  0.78195  0.92152  1.0000
  C   C57       1.0  0.21382  0.74969  0.00180  1.0000
  C   C58       1.0  0.75207  0.53529  0.97106  1.0000
  C   C59       1.0  0.45796  0.21308  0.03927  1.0000
  C   C60       1.0  0.78678  0.24802  0.98589  1.0000
  C   C61       1.0  0.22587  0.47885  0.00888  1.0000
  C   C62       1.0  0.51926  0.74540  0.99781  1.0000
  C   C63       1.0  0.25261  0.77541  0.03531  1.0000
  C   C64       1.0  0.77223  0.52017  0.02429  1.0000
  C   C65       1.0  0.47886  0.25134  0.98604  1.0000
  C   C66       1.0  0.74742  0.22368  0.96096  1.0000
  C   C67       1.0  0.16063  0.34424  0.02405  1.0000
  C   C68       1.0  0.65360  0.81766  0.02205  1.0000
  C   C69       1.0  0.18060  0.83640  0.02184  1.0000
  C   C70       1.0  0.83652  0.65427  0.00288  1.0000
  C   C71       1.0  0.34375  0.17996  0.98148  1.0000
  C   C72       1.0  0.81704  0.16132  0.98825  1.0000
  C   C73       1.0  0.17168  0.36651  0.00280  1.0000
  C   C74       1.0  0.63059  0.80385  0.01591  1.0000
  C   C75       1.0  0.19342  0.82587  0.02187  1.0000
  C   C76       1.0  0.82652  0.63100  0.00403  1.0000
  C   C77       1.0  0.36712  0.19342  0.98156  1.0000
  C   C78       1.0  0.80391  0.17165  0.98942  1.0000
  C   C79       1.0  0.77341  0.33670  0.03278  1.0000
  C   C80       1.0  0.66686  0.43531  0.97332  1.0000
  C   C81       1.0  0.56170  0.22852  0.99516  1.0000
  C   C82       1.0  0.22830  0.66096  0.93709  1.0000
  C   C83       1.0  0.33531  0.55875  0.99816  1.0000
  C   C84       1.0  0.43583  0.77528  0.04773  1.0000
  C   C85       1.0  0.79822  0.44730  0.95497  1.0000
  C   C86       1.0  0.54790  0.34510  0.02696  1.0000
  C   C87       1.0  0.65094  0.20570  0.03948  1.0000
  C   C88       1.0  0.20247  0.54889  0.01216  1.0000
  C   C89       1.0  0.45174  0.65169  0.98281  1.0000
  C   C90       1.0  0.35027  0.79955  0.96916  1.0000
  C   C91       1.0  0.28767  0.22042  0.98557  1.0000
  C   C92       1.0  0.77514  0.06509  0.98691  1.0000
  C   C93       1.0  0.93445  0.70984  0.97358  1.0000
  C   C94       1.0  0.70980  0.77795  0.02286  1.0000
  C   C95       1.0  0.22268  0.93175  0.00184  1.0000
  C   C96       1.0  0.06482  0.28758  0.01896  1.0000
  C   C97       1.0  0.25507  0.30664  0.99227  1.0000
  C   C98       1.0  0.69060  0.94600  0.00652  1.0000
  C   C99       1.0  0.05610  0.74849  0.93740  1.0000
  C   C100      1.0  0.74390  0.69044  0.99815  1.0000
  C   C101      1.0  0.30450  0.05420  0.04983  1.0000
  C   C102      1.0  0.94647  0.25451  0.00184  1.0000
  C   C103      1.0  0.21177  0.45679  0.44778  1.0000
  C   C104      1.0  0.54528  0.74902  0.46749  1.0000
  C   C105      1.0  0.24989  0.79107  0.51144  1.0000
  C   C106      1.0  0.79325  0.54209  0.48325  1.0000
  C   C107      1.0  0.45536  0.25364  0.55292  1.0000
  C   C108      1.0  0.75108  0.20747  0.47512  1.0000
  C   C109      1.0  0.21321  0.43841  0.45895  1.0000
  C   C110      1.0  0.56355  0.77048  0.47512  1.0000
  C   C111      1.0  0.22839  0.78926  0.51888  1.0000
  C   C112      1.0  0.79055  0.56173  0.49998  1.0000
  C   C113      1.0  0.43815  0.23182  0.52708  1.0000
  C   C114      1.0  0.77249  0.20978  0.46993  1.0000
  C   C115      1.0  0.24791  0.48263  0.51562  1.0000
  C   C116      1.0  0.52017  0.76736  0.49471  1.0000
  C   C117      1.0  0.23184  0.74997  0.50868  1.0000
  C   C118      1.0  0.75003  0.52121  0.53098  1.0000
  C   C119      1.0  0.48235  0.23443  0.49599  1.0000
  C   C120      1.0  0.76897  0.24810  0.46777  1.0000
  C   C121      1.0  0.21030  0.37249  0.50113  1.0000
  C   C122      1.0  0.62895  0.83959  0.50553  1.0000
  C   C123      1.0  0.16322  0.78967  0.48784  1.0000
  C   C124      1.0  0.79079  0.62929  0.49946  1.0000
  C   C125      1.0  0.37243  0.16316  0.49803  1.0000
  C   C126      1.0  0.83831  0.21075  0.50051  1.0000
  C   C127      1.0  0.20025  0.34981  0.51222  1.0000
  C   C128      1.0  0.65131  0.85424  0.51930  1.0000
  C   C129      1.0  0.15087  0.79964  0.47828  1.0000
  C   C130      1.0  0.80010  0.65248  0.49877  1.0000
  C   C131      1.0  0.34844  0.14973  0.51052  1.0000
  C   C132      1.0  0.85093  0.20156  0.51492  1.0000
  C   C133      1.0  0.20876  0.40546  0.47796  1.0000
  C   C134      1.0  0.59633  0.80190  0.49065  1.0000
  C   C135      1.0  0.19792  0.79291  0.52090  1.0000
  C   C136      1.0  0.79349  0.59598  0.51003  1.0000
  C   C137      1.0  0.40704  0.19973  0.48553  1.0000
  C   C138      1.0  0.80304  0.20723  0.47379  1.0000
  C   C139      1.0  0.19754  0.38159  0.48715  1.0000
  C   C140      1.0  0.62001  0.81620  0.49964  1.0000
  C   C141      1.0  0.18495  0.80346  0.51333  1.0000
  C   C142      1.0  0.80436  0.61974  0.50103  1.0000
  C   C143      1.0  0.38282  0.18571  0.48335  1.0000
  C   C144      1.0  0.81580  0.19704  0.48662  1.0000
  C   C145      1.0  0.17648  0.33681  0.51746  1.0000
  C   C146      1.0  0.66426  0.84501  0.53065  1.0000
  C   C147      1.0  0.16147  0.82323  0.48310  1.0000
  C   C148      1.0  0.82330  0.66614  0.50294  1.0000
  C   C149      1.0  0.33499  0.16003  0.51428  1.0000
  C   C150      1.0  0.83992  0.17835  0.52040  1.0000
  C   C151      1.0  0.23108  0.44167  0.50497  1.0000
  C   C152      1.0  0.56088  0.79066  0.49306  1.0000
  C   C153      1.0  0.20847  0.76831  0.52055  1.0000
  C   C154      1.0  0.76798  0.56186  0.53242  1.0000
  C   C155      1.0  0.44266  0.21108  0.48069  1.0000
  C   C156      1.0  0.79279  0.23050  0.45895  1.0000
  C   C157      1.0  0.24855  0.46368  0.52949  1.0000
  C   C158      1.0  0.53913  0.78879  0.50343  1.0000
  C   C159      1.0  0.21040  0.74898  0.51673  1.0000
  C   C160      1.0  0.74801  0.54160  0.54853  1.0000
  C   C161      1.0  0.46461  0.21244  0.46531  1.0000
  C   C162      1.0  0.79076  0.24918  0.45522  1.0000
  C   C163      1.0  0.22812  0.47949  0.48429  1.0000
  C   C164      1.0  0.52299  0.74705  0.48098  1.0000
  C   C165      1.0  0.25209  0.77160  0.50791  1.0000
  C   C166      1.0  0.77304  0.52157  0.50336  1.0000
  C   C167      1.0  0.47794  0.25531  0.53267  1.0000
  C   C168      1.0  0.74893  0.22641  0.47176  1.0000
  C   C169      1.0  0.16335  0.34541  0.50279  1.0000
  C   C170      1.0  0.65603  0.82133  0.51981  1.0000
  C   C171      1.0  0.18317  0.83750  0.50898  1.0000
  C   C172      1.0  0.83773  0.65686  0.49798  1.0000
  C   C173      1.0  0.34524  0.18215  0.49273  1.0000
  C   C174      1.0  0.81786  0.16402  0.50093  1.0000
  C   C175      1.0  0.17427  0.36794  0.48588  1.0000
  C   C176      1.0  0.63376  0.80720  0.50304  1.0000
  C   C177      1.0  0.19438  0.82742  0.52884  1.0000
  C   C178      1.0  0.82801  0.63336  0.49376  1.0000
  C   C179      1.0  0.36960  0.19465  0.47336  1.0000
  C   C180      1.0  0.80608  0.17355  0.48168  1.0000
  C   C181      1.0  0.77372  0.33574  0.49385  1.0000
  C   C182      1.0  0.66075  0.44326  0.54874  1.0000
  C   C183      1.0  0.56325  0.22687  0.48409  1.0000
  C   C184      1.0  0.22326  0.66458  0.53439  1.0000
  C   C185      1.0  0.33263  0.56435  0.55216  1.0000
  C   C186      1.0  0.43733  0.77501  0.53739  1.0000
  C   C187      1.0  0.79256  0.45173  0.53270  1.0000
  C   C188      1.0  0.55149  0.34570  0.47767  1.0000
  C   C189      1.0  0.65353  0.20386  0.51337  1.0000
  C   C190      1.0  0.20295  0.55418  0.57602  1.0000
  C   C191      1.0  0.44814  0.65771  0.54671  1.0000
  C   C192      1.0  0.34603  0.79258  0.48671  1.0000
  C   C193      1.0  0.29246  0.22151  0.45583  1.0000
  C   C194      1.0  0.77782  0.06650  0.45304  1.0000
  C   C195      1.0  0.93612  0.71040  0.46098  1.0000
  C   C196      1.0  0.71228  0.78000  0.50341  1.0000
  C   C197      1.0  0.22405  0.93469  0.53294  1.0000
  C   C198      1.0  0.06764  0.28816  0.49564  1.0000
  C   C199      1.0  0.25572  0.30737  0.49283  1.0000
  C   C200      1.0  0.69325  0.94730  0.46244  1.0000
  C   C201      1.0  0.05651  0.74744  0.44454  1.0000
  C   C202      1.0  0.74504  0.69472  0.51312  1.0000
  C   C203      1.0  0.30889  0.05396  0.51383  1.0000
  C   C204      1.0  0.94660  0.25467  0.52396  1.0000
  N   N1        1.0  0.22951  0.41648  0.95520  1.0000
  N   N2        1.0  0.58353  0.80276  0.93161  1.0000
  N   N3        1.0  0.19187  0.76974  0.99998  1.0000
  N   N4        1.0  0.77359  0.57733  0.96497  1.0000
  N   N5        1.0  0.41645  0.19262  0.02970  1.0000
  N   N6        1.0  0.80746  0.22719  0.99072  1.0000
  N   N7        1.0  0.19315  0.41569  0.00409  1.0000
  N   N8        1.0  0.58044  0.77680  0.02622  1.0000
  N   N9        1.0  0.21912  0.80582  0.04738  1.0000
  N   N10       1.0  0.80236  0.58395  0.04405  1.0000
  N   N11       1.0  0.41778  0.22010  0.95827  1.0000
  N   N12       1.0  0.77897  0.19173  0.95347  1.0000
  N   N13       1.0  0.79363  0.35362  0.99233  1.0000
  N   N14       1.0  0.64521  0.43575  0.02414  1.0000
  N   N15       1.0  0.56436  0.21027  0.97986  1.0000
  N   N16       1.0  0.20811  0.64643  0.01633  1.0000
  N   N17       1.0  0.35413  0.56084  0.00935  1.0000
  N   N18       1.0  0.43642  0.79231  0.02290  1.0000
  N   N19       1.0  0.78154  0.43043  0.02201  1.0000
  N   N20       1.0  0.57096  0.34853  0.97226  1.0000
  N   N21       1.0  0.64868  0.21839  0.98955  1.0000
  N   N22       1.0  0.21593  0.57067  0.03641  1.0000
  N   N23       1.0  0.42896  0.64755  0.02462  1.0000
  N   N24       1.0  0.35363  0.78631  0.00655  1.0000
  N   N25       1.0  0.29748  0.24090  0.96681  1.0000
  N   N26       1.0  0.75427  0.05151  0.97700  1.0000
  N   N27       1.0  0.94589  0.70433  0.01177  1.0000
  N   N28       1.0  0.70204  0.75600  0.00876  1.0000
  N   N29       1.0  0.24238  0.94617  0.02758  1.0000
  N   N30       1.0  0.05484  0.29371  0.97310  1.0000
  N   N31       1.0  0.24602  0.28514  0.99116  1.0000
  N   N32       1.0  0.71388  0.95723  0.96224  1.0000
  N   N33       1.0  0.03864  0.75824  0.02731  1.0000
  N   N34       1.0  0.75313  0.71154  0.99027  1.0000
  N   N35       1.0  0.28736  0.03863  0.99510  1.0000
  N   N36       1.0  0.95827  0.24670  0.01891  1.0000
  N   N37       1.0  0.22790  0.42104  0.51629  1.0000
  N   N38       1.0  0.58144  0.80987  0.50100  1.0000
  N   N39       1.0  0.18973  0.77099  0.52252  1.0000
  N   N40       1.0  0.77024  0.58318  0.53742  1.0000
  N   N41       1.0  0.42293  0.19164  0.45774  1.0000
  N   N42       1.0  0.81159  0.22847  0.46067  1.0000
  N   N43       1.0  0.19913  0.41509  0.44184  1.0000
  N   N44       1.0  0.58665  0.77795  0.46975  1.0000
  N   N45       1.0  0.22105  0.80449  0.52047  1.0000
  N   N46       1.0  0.80678  0.58369  0.48470  1.0000
  N   N47       1.0  0.41510  0.22426  0.52997  1.0000
  N   N48       1.0  0.77960  0.19500  0.47688  1.0000
  N   N49       1.0  0.78837  0.35640  0.53900  1.0000
  N   N50       1.0  0.64722  0.43726  0.47059  1.0000
  N   N51       1.0  0.56402  0.20928  0.49257  1.0000
  N   N52       1.0  0.20929  0.64360  0.48501  1.0000
  N   N53       1.0  0.35459  0.56382  0.49045  1.0000
  N   N54       1.0  0.43871  0.78872  0.47517  1.0000
  N   N55       1.0  0.77742  0.43068  0.52623  1.0000
  N   N56       1.0  0.56808  0.35406  0.53398  1.0000
  N   N57       1.0  0.64678  0.22033  0.54206  1.0000
  N   N58       1.0  0.22037  0.57064  0.50764  1.0000
  N   N59       1.0  0.43357  0.64778  0.46850  1.0000
  N   N60       1.0  0.35490  0.77612  0.43426  1.0000
  N   N61       1.0  0.30016  0.24351  0.47224  1.0000
  N   N62       1.0  0.75471  0.05528  0.49343  1.0000
  N   N63       1.0  0.94615  0.70542  0.51468  1.0000
  N   N64       1.0  0.70330  0.75889  0.51004  1.0000
  N   N65       1.0  0.24629  0.94717  0.51657  1.0000
  N   N66       1.0  0.05343  0.29678  0.51141  1.0000
  N   N67       1.0  0.24571  0.28799  0.52873  1.0000
  N   N68       1.0  0.71318  0.96154  0.48533  1.0000
  N   N69       1.0  0.04005  0.75755  0.51463  1.0000
  N   N70       1.0  0.75509  0.71473  0.48619  1.0000
  N   N71       1.0  0.28800  0.04028  0.50621  1.0000
  N   N72       1.0  0.96075  0.24447  0.49063  1.0000
  C  Sn1       1.0  0.22396  0.52742  0.15619  1.0000
  C   C205      1.0  0.21525  0.50287  0.09178  1.0000
  C  Sn2       1.0  0.14683  0.53283  0.97105  1.0000
  C  Sn3       1.0  0.14457  0.54662  0.91337  1.0000
  C   C206      1.0  0.15327  0.57115  0.97774  1.0000
  C  Sn4       1.0  0.22170  0.54121  0.09851  1.0000
  O  Te1       1.0  0.23481  0.53807  0.27680  1.0000
  O  Te2       1.0  0.13826  0.50826  0.90858  1.0000
  O  Te3       1.0  0.13370  0.53594  0.79266  1.0000
  O  Te4       1.0  0.23027  0.56576  0.16094  1.0000
  Mg  Mg1       1.0  0.12486  0.50193  0.74566  1.0000
  Mg  Mg2       1.0  0.24368  0.57210  0.32378  1.0000
  C  Sn5       1.0  0.47007  0.71427  0.16154  1.0000
  C   C207      1.0  0.49590  0.72144  0.07453  1.0000
  C  Sn6       1.0  0.45130  0.74614  0.92941  1.0000
  C  Sn7       1.0  0.43810  0.72218  0.86993  1.0000
  C   C208      1.0  0.41229  0.71502  0.95690  1.0000
  C  Sn8       1.0  0.45687  0.69031  0.10207  1.0000
  O  Te5       1.0  0.45755  0.73085  0.30633  1.0000
  O  Te6       1.0  0.47713  0.75373  0.84460  1.0000
  O  Te7       1.0  0.45064  0.70559  0.72502  1.0000
  O  Te8       1.0  0.43106  0.68273  0.18683  1.0000
  Mg  Mg3       1.0  0.48584  0.72450  0.65321  1.0000
  Mg  Mg4       1.0  0.42232  0.71194  0.37816  1.0000
  C  Sn9       1.0  0.31392  0.81081  0.98602  1.0000
  C   C209      1.0  0.37951  0.76090  0.04027  1.0000
  C  Sn10      1.0  0.36568  0.73936  0.07413  1.0000
  C  Sn11      1.0  0.34331  0.72645  0.05322  1.0000
  C   C210      1.0  0.27774  0.77635  0.99897  1.0000
  C  Sn12      1.0  0.29155  0.79789  0.96511  1.0000
  O  Te9       1.0  0.32804  0.83238  0.95289  1.0000
  O  Te10      1.0  0.37413  0.73081  0.12828  1.0000
  O  Te11      1.0  0.32919  0.70486  0.08640  1.0000
  O  Te12      1.0  0.28311  0.80644  0.91096  1.0000
  Mg  Mg5       1.0  0.34842  0.70057  0.15725  1.0000
  Mg  Mg6       1.0  0.30882  0.83667  0.88186  1.0000
  C  Sn13      1.0  0.80886  0.49421  0.98985  1.0000
  C   C211      1.0  0.85107  0.43175  0.02334  1.0000
  C  Sn14      1.0  0.82698  0.42274  0.03965  1.0000
  C  Sn15      1.0  0.81799  0.43546  0.02199  1.0000
  C   C212      1.0  0.77577  0.49791  0.98849  1.0000
  C  Sn16      1.0  0.79987  0.50693  0.97219  1.0000
  O  Te13      1.0  0.83289  0.50288  0.97404  1.0000
  O  Te14      1.0  0.81203  0.40123  0.07321  1.0000
  O  Te15      1.0  0.79394  0.42677  0.03784  1.0000
  O  Te16      1.0  0.81481  0.52842  0.93862  1.0000
  Mg  Mg7       1.0  0.78066  0.39671  0.08372  1.0000
  Mg  Mg8       1.0  0.84619  0.53295  0.92799  1.0000
  C  Sn17      1.0  0.50094  0.31392  0.15170  1.0000
  C   C213      1.0  0.52664  0.32057  0.05245  1.0000
  C  Sn18      1.0  0.48113  0.34492  0.90087  1.0000
  C  Sn19      1.0  0.46715  0.32113  0.84729  1.0000
  C   C214      1.0  0.44146  0.31448  0.94650  1.0000
  C  Sn20      1.0  0.48695  0.29013  0.09813  1.0000
  O  Te17      1.0  0.48933  0.33085  0.30277  1.0000
  O  Te18      1.0  0.50684  0.35199  0.80382  1.0000
  O  Te19      1.0  0.47877  0.30419  0.69609  1.0000
  O  Te20      1.0  0.46126  0.28307  0.19512  1.0000
  Mg  Mg9       1.0  0.51418  0.32243  0.60776  1.0000
  Mg  Mg10      1.0  0.45390  0.31261  0.39114  1.0000
  C  Sn21      1.0  0.70271  0.22253  0.86768  1.0000
  C   C215      1.0  0.68025  0.20811  0.96070  1.0000
  C  Sn22      1.0  0.73604  0.15868  0.07556  1.0000
  C  Sn23      1.0  0.75722  0.16479  0.09802  1.0000
  C   C216      1.0  0.77967  0.17919  0.00506  1.0000
  C  Sn24      1.0  0.72390  0.22863  0.89013  1.0000
  O  Te21      1.0  0.70400  0.23077  0.75356  1.0000
  O  Te22      1.0  0.71338  0.14430  0.16707  1.0000
  O  Te23      1.0  0.75592  0.15653  0.21225  1.0000
  O  Te24      1.0  0.74654  0.24301  0.79868  1.0000
  Mg  Mg11      1.0  0.72093  0.13746  0.30753  1.0000
  Mg  Mg12      1.0  0.73900  0.24987  0.65827  1.0000
  C  Sn25      1.0  0.15880  0.34417  0.94969  1.0000
  C   C217      1.0  0.18191  0.35477  0.95323  1.0000
  C  Sn26      1.0  0.24915  0.33827  0.00714  1.0000
  C  Sn27      1.0  0.23550  0.35248  0.05871  1.0000
  C   C218      1.0  0.21240  0.34189  0.05519  1.0000
  C  Sn28      1.0  0.20266  0.31739  0.00126  1.0000
  O  Te25      1.0  0.14943  0.31965  0.89534  1.0000
  O  Te26      1.0  0.27229  0.34846  0.00952  1.0000
  O  Te27      1.0  0.24489  0.37702  0.11309  1.0000
  O  Te28      1.0  0.12202  0.34819  0.99890  1.0000
  Mg  Mg13      1.0  0.27721  0.38263  0.09390  1.0000
  Mg  Mg14      1.0  0.11708  0.31403  0.91464  1.0000
  C  Sn29      1.0  0.69702  0.90189  0.88966  1.0000
  C   C219      1.0  0.68454  0.91670  0.93880  1.0000
  C  Sn30      1.0  0.71627  0.86976  0.03158  1.0000
  C  Sn31      1.0  0.70267  0.84857  0.07630  1.0000
  C   C220      1.0  0.71514  0.83378  0.02720  1.0000
  C  Sn32      1.0  0.68342  0.88071  0.93438  1.0000
  O  Te29      1.0  0.72280  0.90820  0.79697  1.0000
  O  Te30      1.0  0.70421  0.88483  0.07922  1.0000
  O  Te31      1.0  0.67687  0.84228  0.16907  1.0000
  O  Te32      1.0  0.69548  0.86565  0.88678  1.0000
  Mg  Mg15      1.0  0.66886  0.86858  0.20462  1.0000
  Mg  Mg16      1.0  0.73082  0.88189  0.76147  1.0000
  C  Sn33      1.0  0.09600  0.78860  0.15898  1.0000
  C   C221      1.0  0.11805  0.78247  0.04430  1.0000
  C  Sn34      1.0  0.06419  0.80664  0.86992  1.0000
  C  Sn35      1.0  0.04542  0.79574  0.80884  1.0000
  C   C222      1.0  0.02339  0.80187  0.92347  1.0000
  C  Sn36      1.0  0.07723  0.77770  0.09790  1.0000
  O  Te33      1.0  0.09275  0.80545  0.33276  1.0000
  O  Te34      1.0  0.08638  0.80079  0.75776  1.0000
  O  Te35      1.0  0.04868  0.77887  0.63490  1.0000
  O  Te36      1.0  0.05505  0.78355  0.21001  1.0000
  Mg  Mg17      1.0  0.08210  0.77683  0.53247  1.0000
  Mg  Mg18      1.0  0.05932  0.80751  0.43527  1.0000
  C  Sn37      1.0  0.76088  0.64535  0.93636  1.0000
  C   C223      1.0  0.78393  0.65606  0.94090  1.0000
  C  Sn38      1.0  0.79373  0.68055  0.99216  1.0000
  C  Sn39      1.0  0.83771  0.65364  0.03999  1.0000
  C   C224      1.0  0.81467  0.64293  0.03547  1.0000
  C  Sn40      1.0  0.74735  0.65943  0.98419  1.0000
  O  Te37      1.0  0.75144  0.62083  0.88470  1.0000
  O  Te38      1.0  0.81682  0.69086  0.99561  1.0000
  O  Te39      1.0  0.84717  0.67818  0.09167  1.0000
  O  Te40      1.0  0.72428  0.64912  0.98076  1.0000
  Mg  Mg19      1.0  0.87937  0.68398  0.07530  1.0000
  Mg  Mg20      1.0  0.71921  0.61502  0.90119  1.0000
  C  Sn41      1.0  0.35034  0.10919  0.01326  1.0000
  C   C225      1.0  0.28570  0.16029  0.96108  1.0000
  C  Sn42      1.0  0.26286  0.14981  0.95369  1.0000
  C  Sn43      1.0  0.24681  0.12880  0.99952  1.0000
  C   C226      1.0  0.31144  0.07772  0.05169  1.0000
  C  Sn44      1.0  0.33428  0.08818  0.05909  1.0000
  O  Te41      1.0  0.37326  0.11997  0.01971  1.0000
  O  Te42      1.0  0.25614  0.16024  0.90106  1.0000
  O  Te43      1.0  0.22387  0.11802  0.99302  1.0000
  O  Te44      1.0  0.34100  0.07777  0.11171  1.0000
  Mg  Mg21      1.0  0.22302  0.13892  0.91330  1.0000
  Mg  Mg22      1.0  0.37412  0.09907  0.09961  1.0000
  C  Sn45      1.0  0.89479  0.23736  0.92586  1.0000
  C   C227      1.0  0.88070  0.21499  0.94463  1.0000
  C  Sn46      1.0  0.94351  0.16463  0.01490  1.0000
  C  Sn47      1.0  0.96330  0.17791  0.06761  1.0000
  C   C228      1.0  0.97737  0.20027  0.04887  1.0000
  C  Sn48      1.0  0.91458  0.25064  0.97858  1.0000
  O  Te45      1.0  0.88915  0.24638  0.85530  1.0000
  O  Te46      1.0  0.92918  0.14222  0.03232  1.0000
  O  Te47      1.0  0.96894  0.16887  0.13821  1.0000
  O  Te48      1.0  0.92890  0.27304  0.96118  1.0000
  Mg  Mg23      1.0  0.94407  0.13755  0.13576  1.0000
  Mg  Mg24      1.0  0.91401  0.27773  0.85785  1.0000
  C  Sn49      1.0  0.44180  0.57893  0.02325  1.0000
  C   C229      1.0  0.46160  0.58534  0.05912  1.0000
  C  Sn50      1.0  0.46805  0.56821  0.04658  1.0000
  C  Sn51      1.0  0.39692  0.58514  0.99705  1.0000
  C   C230      1.0  0.37714  0.57874  0.96118  1.0000
  C  Sn52      1.0  0.37067  0.59587  0.97372  1.0000
  O  Te49      1.0  0.43568  0.59636  0.03660  1.0000
  O  Te50      1.0  0.48791  0.57505  0.08314  1.0000
  O  Te51      1.0  0.40306  0.56771  0.98372  1.0000
  O  Te52      1.0  0.35082  0.58903  0.93715  1.0000
  Mg  Mg25      1.0  0.48912  0.54481  0.04663  1.0000
  Mg  Mg26      1.0  0.34960  0.61925  0.97353  1.0000
  C  Sn53      1.0  0.39615  0.76584  0.92641  1.0000
  C   C231      1.0  0.41592  0.78522  0.95493  1.0000
  C  Sn54      1.0  0.47210  0.76710  0.02621  1.0000
  C  Sn55      1.0  0.45055  0.77068  0.07002  1.0000
  C   C232      1.0  0.43080  0.75131  0.04154  1.0000
  C  Sn56      1.0  0.37461  0.76942  0.97022  1.0000
  O  Te53      1.0  0.39788  0.74313  0.85502  1.0000
  O  Te54      1.0  0.49210  0.78620  0.05345  1.0000
  O  Te55      1.0  0.44884  0.79342  0.14146  1.0000
  O  Te56      1.0  0.35462  0.75033  0.94301  1.0000
  Mg  Mg27      1.0  0.48093  0.81376  0.15406  1.0000
  Mg  Mg28      1.0  0.36576  0.72277  0.84251  1.0000
  C  Sn57      1.0  0.13680  0.62808  0.95131  1.0000
  C   C233      1.0  0.15458  0.62719  0.97399  1.0000
  C  Sn58      1.0  0.22844  0.60695  0.03627  1.0000
  C  Sn59      1.0  0.22699  0.62905  0.07686  1.0000
  C   C234      1.0  0.20921  0.62993  0.05421  1.0000
  C  Sn60      1.0  0.13535  0.65018  0.99189  1.0000
  O  Te57      1.0  0.12064  0.60711  0.88888  1.0000
  O  Te58      1.0  0.24607  0.60562  0.05781  1.0000
  O  Te59      1.0  0.24317  0.65003  0.13932  1.0000
  O  Te60      1.0  0.11773  0.65151  0.97038  1.0000
  Mg  Mg29      1.0  0.26396  0.63907  0.14676  1.0000
  Mg  Mg30      1.0  0.09982  0.61806  0.88154  1.0000
  C  Sn61      1.0  0.59717  0.39200  0.90515  1.0000
  C   C235      1.0  0.59228  0.37245  0.94159  1.0000
  C  Sn62      1.0  0.66042  0.33342  0.03937  1.0000
  C  Sn63      1.0  0.67628  0.35539  0.10216  1.0000
  C   C236      1.0  0.68117  0.37493  0.06574  1.0000
  C  Sn64      1.0  0.61303  0.41397  0.96793  1.0000
  O  Te61      1.0  0.58633  0.38964  0.80715  1.0000
  O  Te62      1.0  0.65526  0.31362  0.07407  1.0000
  O  Te63      1.0  0.68712  0.35774  0.20022  1.0000
  O  Te64      1.0  0.61819  0.43376  0.93326  1.0000
  Mg  Mg31      1.0  0.67444  0.32570  0.21325  1.0000
  Mg  Mg32      1.0  0.59901  0.42170  0.79419  1.0000
  C  Sn65      1.0  0.55506  0.27585  0.95921  1.0000
  C   C237      1.0  0.53421  0.25668  0.95046  1.0000
  C  Sn66      1.0  0.52910  0.23692  0.98539  1.0000
  C  Sn67      1.0  0.60265  0.19533  0.03012  1.0000
  C   C238      1.0  0.62348  0.21450  0.03889  1.0000
  C  Sn68      1.0  0.62862  0.23427  0.00394  1.0000
  O  Te65      1.0  0.55982  0.29542  0.92379  1.0000
  O  Te66      1.0  0.50815  0.21796  0.97575  1.0000
  O  Te67      1.0  0.59788  0.17574  0.06555  1.0000
  O  Te68      1.0  0.64955  0.25322  0.01360  1.0000
  Mg  Mg33      1.0  0.56704  0.15429  0.03552  1.0000
  Mg  Mg34      1.0  0.59067  0.31690  0.95395  1.0000
  C  Sn69      1.0  0.76505  0.38074  0.11337  1.0000
  C   C239      1.0  0.78559  0.37233  0.00709  1.0000
  C  Sn70      1.0  0.75119  0.42661  0.90906  1.0000
  C  Sn71      1.0  0.75382  0.44879  0.91753  1.0000
  C   C240      1.0  0.79080  0.41620  0.02379  1.0000
  C  Sn72      1.0  0.76769  0.40292  0.12184  1.0000
  O  Te69      1.0  0.74213  0.36716  0.21025  1.0000
  O  Te70      1.0  0.77145  0.41783  0.80370  1.0000
  O  Te71      1.0  0.77677  0.46237  0.82053  1.0000
  O  Te72      1.0  0.74743  0.41169  0.22718  1.0000
  Mg  Mg35      1.0  0.79885  0.44287  0.69633  1.0000
  Mg  Mg36      1.0  0.72003  0.38668  0.33467  1.0000
  C  Sn73      1.0  0.22988  0.32787  0.99307  1.0000
  C   C241      1.0  0.21019  0.31816  0.94700  1.0000
  C  Sn74      1.0  0.19688  0.29436  0.92245  1.0000
  C  Sn75      1.0  0.20336  0.27995  0.94452  1.0000
  C   C242      1.0  0.22304  0.28966  0.99059  1.0000
  C  Sn76      1.0  0.29387  0.27248  0.01514  1.0000
  O  Te73      1.0  0.30044  0.31072  0.01696  1.0000
  O  Te74      1.0  0.17727  0.28505  0.87637  1.0000
  O  Te75      1.0  0.19029  0.25609  0.92059  1.0000
  O  Te76      1.0  0.31347  0.28178  0.06123  1.0000
  Mg  Mg37      1.0  0.16506  0.25158  0.85848  1.0000
  Mg  Mg38      1.0  0.32568  0.31525  0.07924  1.0000
  C  Sn77      1.0  0.21915  0.01045  0.98303  1.0000
  C   C243      1.0  0.29688  0.98591  0.02235  1.0000
  C  Sn78      1.0  0.31271  0.97854  0.01804  1.0000
  C  Sn79      1.0  0.25073  0.99520  0.97338  1.0000
  C   C244      1.0  0.23052  0.97876  0.93406  1.0000
  C  Sn80      1.0  0.21468  0.98612  0.93837  1.0000
  O  Te77      1.0  0.20357  0.01822  0.98814  1.0000
  O  Te78      1.0  0.33280  0.99531  0.05792  1.0000
  O  Te79      1.0  0.26633  0.98744  0.96830  1.0000
  O  Te80      1.0  0.19460  0.96936  0.89849  1.0000
  Mg  Mg39      1.0  0.34876  0.97603  0.03293  1.0000
  Mg  Mg40      1.0  0.17864  0.98862  0.92335  1.0000
  C  Sn81      1.0  0.98362  0.71230  0.07120  1.0000
  C   C245      1.0  0.96901  0.71945  0.06023  1.0000
  C  Sn82      1.0  0.97913  0.73930  0.00833  1.0000
  C  Sn83      1.0  0.94689  0.79325  0.96640  1.0000
  C   C246      1.0  0.96148  0.78610  0.97734  1.0000
  C  Sn84      1.0  0.00888  0.72527  0.02926  1.0000
  O  Te81      1.0  0.97311  0.69240  0.12337  1.0000
  O  Te82      1.0  0.90665  0.78710  0.99841  1.0000
  O  Te83      1.0  0.95739  0.81316  0.91420  1.0000
  O  Te84      1.0  0.02384  0.71845  0.03916  1.0000
  Mg  Mg41      1.0  0.92947  0.81543  0.92064  1.0000
  Mg  Mg42      1.0  0.00104  0.69012  0.11682  1.0000
  C  Sn85      1.0  0.71865  0.70961  0.90747  1.0000
  C   C247      1.0  0.73948  0.71881  0.93947  1.0000
  C  Sn86      1.0  0.80522  0.70190  0.02625  1.0000
  C  Sn87      1.0  0.79234  0.71710  0.08232  1.0000
  C   C248      1.0  0.77152  0.70790  0.05034  1.0000
  C  Sn88      1.0  0.70577  0.72481  0.96354  1.0000
  O  Te85      1.0  0.71075  0.68548  0.82049  1.0000
  O  Te86      1.0  0.82610  0.71068  0.05670  1.0000
  O  Te87      1.0  0.80026  0.74124  0.16935  1.0000
  O  Te88      1.0  0.68490  0.71603  0.93311  1.0000
  Mg  Mg43      1.0  0.82966  0.74482  0.18039  1.0000
  Mg  Mg44      1.0  0.68132  0.68189  0.80954  1.0000
  C  Sn89      1.0  0.74922  0.00125  0.06151  1.0000
  C   C249      1.0  0.26945  0.01553  0.05865  1.0000
  C  Sn90      1.0  0.28603  0.00578  0.02012  1.0000
  C  Sn91      1.0  0.72475  0.02224  0.98357  1.0000
  C   C250      1.0  0.70147  0.00797  0.98641  1.0000
  C  Sn92      1.0  0.74238  0.97672  0.02496  1.0000
  O  Te89      1.0  0.22988  0.01137  0.10035  1.0000
  O  Te90      1.0  0.30921  0.02042  0.01810  1.0000
  O  Te91      1.0  0.74105  0.01212  0.94472  1.0000
  O  Te92      1.0  0.71922  0.96210  0.02696  1.0000
  Mg  Mg45      1.0  0.26746  0.03934  0.95792  1.0000
  Mg  Mg46      1.0  0.70346  0.98414  0.08703  1.0000
  C  Sn93      1.0  0.94530  0.32489  0.94506  1.0000
  C   C251      1.0  0.92962  0.30251  0.95817  1.0000
  C  Sn94      1.0  0.93505  0.28954  0.99872  1.0000
  C  Sn95      1.0  0.01410  0.25815  0.02687  1.0000
  C   C252      1.0  0.02977  0.28053  0.01379  1.0000
  C  Sn96      1.0  0.96686  0.33450  0.97321  1.0000
  O  Te93      1.0  0.93951  0.33755  0.90439  1.0000
  O  Te94      1.0  0.97659  0.22620  0.01104  1.0000
  O  Te95      1.0  0.01988  0.24548  0.06757  1.0000
  O  Te96      1.0  0.98280  0.35683  0.96092  1.0000
  Mg  Mg47      1.0  0.99242  0.21580  0.06976  1.0000
  Mg  Mg48      1.0  0.96698  0.36726  0.90231  1.0000
  C  Sn97      1.0  0.28605  0.50866  0.11438  1.0000
  C   C253      1.0  0.27008  0.50453  0.04934  1.0000
  C  Sn98      1.0  0.22011  0.55718  0.93289  1.0000
  C  Sn99      1.0  0.24412  0.57331  0.88024  1.0000
  C   C254      1.0  0.26007  0.57743  0.94523  1.0000
  C  Sn100     1.0  0.31005  0.52478  0.06173  1.0000
  O  Te97      1.0  0.27812  0.49680  0.23066  1.0000
  O  Te98      1.0  0.20382  0.55277  0.86969  1.0000
  O  Te99      1.0  0.25203  0.58517  0.76387  1.0000
  O  Te100     1.0  0.32633  0.52918  0.12488  1.0000
  Mg  Mg49      1.0  0.22315  0.57324  0.71388  1.0000
  Mg  Mg50      1.0  0.30703  0.50872  0.28061  1.0000
  C  Sn101     1.0  0.42963  0.83249  0.97015  1.0000
  C   C255      1.0  0.40747  0.81578  0.96284  1.0000
  C  Sn102     1.0  0.40027  0.79378  0.97613  1.0000
  C  Sn103     1.0  0.41554  0.78838  0.99729  1.0000
  C   C256      1.0  0.49519  0.76409  0.00462  1.0000
  C  Sn104     1.0  0.44490  0.82708  0.99131  1.0000
  O  Te101     1.0  0.43645  0.85437  0.95660  1.0000
  O  Te102     1.0  0.37804  0.77737  0.96840  1.0000
  O  Te103     1.0  0.46620  0.72549  0.01084  1.0000
  O  Te104     1.0  0.46712  0.84349  0.99906  1.0000
  Mg  Mg51      1.0  0.37672  0.74999  0.99305  1.0000
  Mg  Mg52      1.0  0.46844  0.87088  0.97453  1.0000
  C  Sn105     1.0  0.20958  0.71159  0.12728  1.0000
  C   C257      1.0  0.23112  0.72910  0.06415  1.0000
  C  Sn106     1.0  0.19562  0.76446  0.92576  1.0000
  C  Sn107     1.0  0.19611  0.74084  0.84879  1.0000
  C   C258      1.0  0.17458  0.72335  0.91189  1.0000
  C  Sn108     1.0  0.21007  0.68797  0.05031  1.0000
  O  Te105     1.0  0.18779  0.71761  0.26574  1.0000
  O  Te106     1.0  0.21691  0.78227  0.86494  1.0000
  O  Te107     1.0  0.21793  0.73483  0.71023  1.0000
  O  Te108     1.0  0.18879  0.67017  0.11110  1.0000
  Mg  Mg53      1.0  0.24210  0.76530  0.67334  1.0000
  Mg  Mg54      1.0  0.16359  0.68712  0.30262  1.0000
  C  Sn109     1.0  0.71684  0.45564  0.91120  1.0000
  C   C259      1.0  0.74965  0.41453  0.00486  1.0000
  C  Sn110     1.0  0.74377  0.43535  0.08091  1.0000
  C  Sn111     1.0  0.76295  0.45673  0.06287  1.0000
  C   C260      1.0  0.73011  0.49783  0.96923  1.0000
  C  Sn112     1.0  0.73602  0.47702  0.89316  1.0000
  O  Te109     1.0  0.72230  0.43462  0.83626  1.0000
  O  Te110     1.0  0.71895  0.43480  0.17399  1.0000
  O  Te111     1.0  0.75747  0.47776  0.13791  1.0000
  O  Te112     1.0  0.76082  0.47756  0.80010  1.0000
  Mg  Mg55      1.0  0.72087  0.46801  0.25212  1.0000
  Mg  Mg56      1.0  0.75892  0.44436  0.72183  1.0000
  C  Sn113     1.0  0.52397  0.20739  0.87176  1.0000
  C   C261      1.0  0.54165  0.22534  0.93582  1.0000
  C  Sn114     1.0  0.59558  0.20648  0.05293  1.0000
  C  Sn115     1.0  0.57388  0.21076  0.10725  1.0000
  C   C262      1.0  0.55621  0.19281  0.04323  1.0000
  C  Sn116     1.0  0.50227  0.21166  0.92608  1.0000
  O  Te113     1.0  0.52793  0.18540  0.75479  1.0000
  O  Te114     1.0  0.61352  0.22415  0.11514  1.0000
  O  Te115     1.0  0.56993  0.23277  0.22431  1.0000
  O  Te116     1.0  0.48434  0.19400  0.86392  1.0000
  Mg  Mg57      1.0  0.59973  0.25118  0.27244  1.0000
  Mg  Mg58      1.0  0.49811  0.16696  0.70669  1.0000
  C  Sn117     1.0  0.74684  0.29652  0.14014  1.0000
  C   C263      1.0  0.76839  0.31347  0.06903  1.0000
  C  Sn118     1.0  0.73304  0.34872  0.93979  1.0000
  C  Sn119     1.0  0.73367  0.32554  0.88028  1.0000
  C   C264      1.0  0.71212  0.30860  0.95135  1.0000
  C  Sn120     1.0  0.74746  0.27334  0.08064  1.0000
  O  Te117     1.0  0.72489  0.30265  0.26921  1.0000
  O  Te118     1.0  0.75435  0.36597  0.87072  1.0000
  O  Te119     1.0  0.75564  0.31942  0.75111  1.0000
  O  Te120     1.0  0.72616  0.25610  0.14967  1.0000
  Mg  Mg59      1.0  0.77977  0.34906  0.69733  1.0000
  Mg  Mg60      1.0  0.70073  0.27299  0.32298  1.0000
  C  Sn121     1.0  0.10205  0.29988  0.11787  1.0000
  C   C265      1.0  0.08840  0.30360  0.07284  1.0000
  C  Sn122     1.0  0.04203  0.36104  0.98378  1.0000
  C  Sn123     1.0  0.06734  0.37403  0.93868  1.0000
  C   C266      1.0  0.08097  0.37030  0.98368  1.0000
  C  Sn124     1.0  0.12735  0.31287  0.07277  1.0000
  O  Te121     1.0  0.09054  0.28334  0.20688  1.0000
  O  Te122     1.0  0.02801  0.36446  0.94022  1.0000
  O  Te123     1.0  0.07884  0.39058  0.84961  1.0000
  O  Te124     1.0  0.14136  0.30944  0.11629  1.0000
  Mg  Mg61      1.0  0.05200  0.38895  0.81888  1.0000
  Mg  Mg62      1.0  0.11740  0.28495  0.23754  1.0000
  C  Sn125     1.0  0.71573  0.74037  0.05112  1.0000
  C   C267      1.0  0.72124  0.76358  0.06747  1.0000
  C  Sn126     1.0  0.74488  0.77917  0.04568  1.0000
  C  Sn127     1.0  0.76338  0.77140  0.00662  1.0000
  C   C268      1.0  0.70036  0.78920  0.99026  1.0000
  C  Sn128     1.0  0.73423  0.73261  0.01206  1.0000
  O  Te125     1.0  0.69198  0.72509  0.07344  1.0000
  O  Te126     1.0  0.74995  0.80228  0.06271  1.0000
  O  Te127     1.0  0.72964  0.82769  0.98431  1.0000
  O  Te128     1.0  0.67166  0.75049  0.99501  1.0000
  Mg  Mg63      1.0  0.78507  0.81648  0.02039  1.0000
  Mg  Mg64      1.0  0.69405  0.69529  0.03721  1.0000
  C  Sn129     1.0  0.24073  0.84865  0.02499  1.0000
  C   C269      1.0  0.26108  0.86612  0.05866  1.0000
  C  Sn130     1.0  0.27760  0.86027  0.05953  1.0000
  C  Sn131     1.0  0.27373  0.83647  0.02594  1.0000
  C   C270      1.0  0.19590  0.86000  0.99226  1.0000
  C  Sn132     1.0  0.17936  0.86583  0.99139  1.0000
  O  Te129     1.0  0.22445  0.85490  0.02477  1.0000
  O  Te130     1.0  0.29780  0.87805  0.09360  1.0000
  O  Te131     1.0  0.29004  0.83023  0.02619  1.0000
  O  Te132     1.0  0.15917  0.84808  0.95733  1.0000
  Mg  Mg65      1.0  0.31482  0.86073  0.07944  1.0000
  Mg  Mg66      1.0  0.14215  0.86537  0.97135  1.0000
  C  Sn133     1.0  0.87648  0.66565  0.07897  1.0000
  C   C271      1.0  0.86136  0.67094  0.05866  1.0000
  C  Sn134     1.0  0.81377  0.72941  0.98204  1.0000
  C  Sn135     1.0  0.83933  0.74184  0.92440  1.0000
  C   C272      1.0  0.85444  0.73655  0.94469  1.0000
  C  Sn136     1.0  0.90205  0.67808  0.02134  1.0000
  O  Te133     1.0  0.86618  0.64810  0.15592  1.0000
  O  Te134     1.0  0.79828  0.73439  0.96319  1.0000
  O  Te135     1.0  0.84963  0.75940  0.84741  1.0000
  O  Te136     1.0  0.91752  0.67309  0.04016  1.0000
  Mg  Mg67      1.0  0.82099  0.75980  0.85033  1.0000
  Mg  Mg68      1.0  0.89483  0.64768  0.15291  1.0000
  C  Sn137     1.0  0.34797  0.14583  0.05284  1.0000
  C   C273      1.0  0.35546  0.16759  0.03457  1.0000
  C  Sn138     1.0  0.32298  0.22129  0.96984  1.0000
  C  Sn139     1.0  0.34090  0.21204  0.92226  1.0000
  C   C274      1.0  0.33341  0.19030  0.94051  1.0000
  C  Sn140     1.0  0.36589  0.13659  0.00526  1.0000
  O  Te137     1.0  0.32285  0.13344  0.11782  1.0000
  O  Te138     1.0  0.33002  0.24301  0.95280  1.0000
  O  Te139     1.0  0.36604  0.22446  0.85724  1.0000
  O  Te140     1.0  0.35885  0.11488  0.02228  1.0000
  Mg  Mg69      1.0  0.36646  0.25327  0.85794  1.0000
  Mg  Mg70      1.0  0.32242  0.10460  0.11702  1.0000
  C  Sn141     1.0  0.80486  0.11138  0.08424  1.0000
  C   C275      1.0  0.78526  0.09389  0.04054  1.0000
  C  Sn142     1.0  0.71902  0.13793  0.95352  1.0000
  C  Sn143     1.0  0.73012  0.15890  0.90913  1.0000
  C   C276      1.0  0.74970  0.17637  0.95279  1.0000
  C  Sn144     1.0  0.81595  0.13235  0.03985  1.0000
  O  Te141     1.0  0.81329  0.10795  0.17122  1.0000
  O  Te142     1.0  0.69941  0.12019  0.91126  1.0000
  O  Te143     1.0  0.72167  0.16231  0.82208  1.0000
  O  Te144     1.0  0.83555  0.15007  0.08206  1.0000
  Mg  Mg71      1.0  0.69448  0.13306  0.79254  1.0000
  Mg  Mg72      1.0  0.84050  0.13721  0.20069  1.0000
  C  Sn145     1.0  0.24029  0.52676  0.51197  1.0000
  C   C277      1.0  0.22506  0.50448  0.52983  1.0000
  C  Sn146     1.0  0.20096  0.49633  0.54819  1.0000
  C  Sn147     1.0  0.19191  0.51075  0.54860  1.0000
  C   C278      1.0  0.20714  0.53301  0.53072  1.0000
  C  Sn148     1.0  0.23124  0.54117  0.51238  1.0000
  O  Te145     1.0  0.26432  0.53454  0.49377  1.0000
  O  Te146     1.0  0.18607  0.47400  0.56591  1.0000
  O  Te147     1.0  0.16786  0.50294  0.56682  1.0000
  O  Te148     1.0  0.24613  0.56348  0.49464  1.0000
  Mg  Mg73      1.0  0.15468  0.47122  0.58686  1.0000
  Mg  Mg74      1.0  0.27753  0.56628  0.47358  1.0000
  C  Sn149     1.0  0.48418  0.69781  0.64527  1.0000
  C   C279      1.0  0.46700  0.68426  0.57011  1.0000
  C  Sn150     1.0  0.46948  0.68906  0.43193  1.0000
  C  Sn151     1.0  0.48957  0.70778  0.36743  1.0000
  C   C280      1.0  0.50673  0.72131  0.44255  1.0000
  C  Sn152     1.0  0.50426  0.71653  0.58077  1.0000
  O  Te149     1.0  0.48133  0.69270  0.78329  1.0000
  O  Te150     1.0  0.45207  0.67528  0.35896  1.0000
  O  Te151     1.0  0.49240  0.71289  0.22930  1.0000
  O  Te152     1.0  0.52166  0.73030  0.65370  1.0000
  Mg  Mg75      1.0  0.46391  0.68912  0.17318  1.0000
  Mg  Mg76      1.0  0.50985  0.71647  0.83940  1.0000
  C  Sn153     1.0  0.29656  0.80307  0.53599  1.0000
  C   C281      1.0  0.28174  0.78098  0.47046  1.0000
  C  Sn154     1.0  0.28706  0.76053  0.41401  1.0000
  C  Sn155     1.0  0.30762  0.76219  0.42334  1.0000
  C   C282      1.0  0.32242  0.78427  0.48886  1.0000
  C  Sn156     1.0  0.31711  0.80473  0.54532  1.0000
  O  Te153     1.0  0.29089  0.82328  0.59170  1.0000
  O  Te154     1.0  0.27199  0.73864  0.34894  1.0000
  O  Te155     1.0  0.31328  0.74195  0.36755  1.0000
  O  Te156     1.0  0.33217  0.82661  0.61039  1.0000
  Mg  Mg77      1.0  0.28725  0.71618  0.28913  1.0000
  Mg  Mg78      1.0  0.31693  0.84908  0.67031  1.0000
  C  Sn157     1.0  0.80371  0.50629  0.50723  1.0000
  C   C283      1.0  0.78574  0.50268  0.46305  1.0000
  C  Sn158     1.0  0.76737  0.48111  0.44796  1.0000
  C  Sn159     1.0  0.76694  0.46279  0.47775  1.0000
  C   C284      1.0  0.78489  0.46641  0.52193  1.0000
  C  Sn160     1.0  0.80327  0.48796  0.53702  1.0000
  O  Te157     1.0  0.82190  0.52799  0.52160  1.0000
  O  Te158     1.0  0.74961  0.47791  0.40358  1.0000
  O  Te159     1.0  0.74872  0.44108  0.46333  1.0000
  O  Te160     1.0  0.82102  0.49117  0.58140  1.0000
  Mg  Mg79      1.0  0.72856  0.44523  0.39989  1.0000
  Mg  Mg80      1.0  0.84207  0.52385  0.58522  1.0000
  C  Sn161     1.0  0.51164  0.29905  0.67149  1.0000
  C   C285      1.0  0.49404  0.28556  0.60027  1.0000
  C  Sn162     1.0  0.49615  0.29015  0.46257  1.0000
  C  Sn163     1.0  0.51628  0.30859  0.39454  1.0000
  C   C286      1.0  0.53387  0.32207  0.46572  1.0000
  C  Sn164     1.0  0.53177  0.31749  0.60346  1.0000
  O  Te161     1.0  0.50916  0.29415  0.80911  1.0000
  O  Te162     1.0  0.47832  0.27643  0.39356  1.0000
  O  Te163     1.0  0.51874  0.31348  0.25682  1.0000
  O  Te164     1.0  0.54959  0.33119  0.67244  1.0000
  Mg  Mg81      1.0  0.48975  0.28991  0.20674  1.0000
  Mg  Mg82      1.0  0.53818  0.31773  0.85918  1.0000
  C  Sn165     1.0  0.69650  0.23737  0.56102  1.0000
  C   C287      1.0  0.68246  0.21549  0.48533  1.0000
  C  Sn166     1.0  0.68824  0.19499  0.42118  1.0000
  C  Sn167     1.0  0.70847  0.19640  0.43302  1.0000
  C   C288      1.0  0.72250  0.21827  0.50870  1.0000
  C  Sn168     1.0  0.71673  0.23877  0.57287  1.0000
  O  Te165     1.0  0.69039  0.25762  0.62431  1.0000
  O  Te166     1.0  0.67394  0.17332  0.34600  1.0000
  O  Te167     1.0  0.71458  0.17612  0.36964  1.0000
  O  Te168     1.0  0.73102  0.26043  0.64803  1.0000
  Mg  Mg83      1.0  0.68957  0.15070  0.27858  1.0000
  Mg  Mg84      1.0  0.71540  0.28306  0.71557  1.0000
  C  Sn169     1.0  0.24526  0.34291  0.39384  1.0000
  C   C289      1.0  0.21972  0.33649  0.45560  1.0000
  C  Sn170     1.0  0.20361  0.32187  0.56545  1.0000
  C  Sn171     1.0  0.21324  0.31351  0.61470  1.0000
  C   C290      1.0  0.23877  0.31993  0.55298  1.0000
  C  Sn172     1.0  0.25489  0.33455  0.44310  1.0000
  O  Te169     1.0  0.26101  0.35755  0.28416  1.0000
  O  Te170     1.0  0.17815  0.31568  0.62547  1.0000
  O  Te171     1.0  0.19746  0.29886  0.72446  1.0000
  O  Te172     1.0  0.28034  0.34074  0.38311  1.0000
  Mg  Mg85      1.0  0.16419  0.29535  0.77227  1.0000
  Mg  Mg86      1.0  0.29431  0.36108  0.23640  1.0000
  C  Sn173     1.0  0.68121  0.90231  0.60541  1.0000
  C   C291      1.0  0.66101  0.88431  0.57265  1.0000
  C  Sn174     1.0  0.65211  0.88520  0.47568  1.0000
  C  Sn175     1.0  0.66365  0.90446  0.40996  1.0000
  C   C292      1.0  0.68384  0.92243  0.44270  1.0000
  C  Sn176     1.0  0.69276  0.92156  0.53970  1.0000
  O  Te173     1.0  0.68980  0.90106  0.70267  1.0000
  O  Te174     1.0  0.63187  0.86701  0.44468  1.0000
  O  Te175     1.0  0.65504  0.90569  0.31265  1.0000
  O  Te176     1.0  0.71298  0.93974  0.57067  1.0000
  Mg  Mg87      1.0  0.62696  0.87664  0.30510  1.0000
  Mg  Mg88      1.0  0.71792  0.93012  0.71014  1.0000
  C  Sn177     1.0  0.11984  0.75931  0.31187  1.0000
  C   C293      1.0  0.12798  0.78308  0.40603  1.0000
  C  Sn178     1.0  0.11107  0.79594  0.54405  1.0000
  C  Sn179     1.0  0.08548  0.78480  0.58900  1.0000
  C   C294      1.0  0.07734  0.76104  0.49490  1.0000
  C  Sn180     1.0  0.09424  0.74817  0.35682  1.0000
  O  Te177     1.0  0.13707  0.74679  0.17438  1.0000
  O  Te178     1.0  0.11966  0.81968  0.63623  1.0000
  O  Te179     1.0  0.06824  0.79734  0.72661  1.0000
  O  Te180     1.0  0.08567  0.72444  0.26470  1.0000
  Mg  Mg89      1.0  0.08898  0.82927  0.81306  1.0000
  Mg  Mg90      1.0  0.11632  0.71483  0.08792  1.0000
  C  Sn181     1.0  0.75775  0.64943  0.49320  1.0000
  C   C295      1.0  0.78275  0.65769  0.45524  1.0000
  C  Sn182     1.0  0.79651  0.68075  0.45188  1.0000
  C  Sn183     1.0  0.78502  0.69586  0.48731  1.0000
  C   C296      1.0  0.76003  0.68760  0.52527  1.0000
  C  Sn184     1.0  0.74627  0.66454  0.52863  1.0000
  O  Te181     1.0  0.74436  0.62631  0.49585  1.0000
  O  Te182     1.0  0.82148  0.68861  0.41354  1.0000
  O  Te183     1.0  0.79844  0.71899  0.48462  1.0000
  O  Te184     1.0  0.72130  0.65668  0.56697  1.0000
  Mg  Mg91      1.0  0.83193  0.72156  0.42569  1.0000
  Mg  Mg92      1.0  0.71083  0.62375  0.55495  1.0000
  C  Sn185     1.0  0.35394  0.10833  0.45943  1.0000
  C   C297      1.0  0.34291  0.12105  0.46450  1.0000
  C  Sn186     1.0  0.31765  0.11280  0.51006  1.0000
  C  Sn187     1.0  0.30311  0.09139  0.55153  1.0000
  C   C298      1.0  0.31414  0.07868  0.54648  1.0000
  C  Sn188     1.0  0.33940  0.08692  0.50089  1.0000
  O  Te185     1.0  0.37922  0.11691  0.41354  1.0000
  O  Te186     1.0  0.30704  0.12582  0.51417  1.0000
  O  Te187     1.0  0.27781  0.08281  0.59744  1.0000
  O  Te188     1.0  0.35001  0.07391  0.49681  1.0000
  Mg  Mg93      1.0  0.27185  0.10686  0.58454  1.0000
  Mg  Mg94      1.0  0.38519  0.09286  0.42655  1.0000
  C  Sn189     1.0  0.91275  0.21196  0.41460  1.0000
  C   C299      1.0  0.92330  0.23637  0.46576  1.0000
  C  Sn190     1.0  0.90868  0.25136  0.56259  1.0000
  C  Sn191     1.0  0.88297  0.24175  0.60939  1.0000
  C   C300      1.0  0.87244  0.21735  0.55828  1.0000
  C  Sn192     1.0  0.88705  0.20235  0.46140  1.0000
  O  Te189     1.0  0.92773  0.19731  0.31785  1.0000
  O  Te190     1.0  0.91964  0.27571  0.61218  1.0000
  O  Te191     1.0  0.86800  0.25642  0.70622  1.0000
  O  Te192     1.0  0.87610  0.17801  0.41186  1.0000
  Mg  Mg95      1.0  0.89151  0.28841  0.74311  1.0000
  Mg  Mg96      1.0  0.90420  0.16530  0.28101  1.0000
  C  Sn193     1.0  0.39660  0.59293  0.55088  1.0000
  C   C301      1.0  0.37519  0.58808  0.54014  1.0000
  C  Sn194     1.0  0.37399  0.60228  0.48252  1.0000
  C  Sn195     1.0  0.39462  0.62174  0.43453  1.0000
  C   C302      1.0  0.41601  0.62658  0.44525  1.0000
  C  Sn196     1.0  0.41723  0.61239  0.50289  1.0000
  O  Te193     1.0  0.39739  0.57850  0.60882  1.0000
  O  Te194     1.0  0.35238  0.59709  0.47295  1.0000
  O  Te195     1.0  0.39381  0.63617  0.37656  1.0000
  O  Te196     1.0  0.43881  0.61757  0.51244  1.0000
  Mg  Mg97      1.0  0.36028  0.62192  0.38598  1.0000
  Mg  Mg98      1.0  0.43095  0.59274  0.59930  1.0000
  C  Sn197     1.0  0.37950  0.76159  0.48515  1.0000
  C   C303      1.0  0.37377  0.77908  0.49553  1.0000
  C  Sn198     1.0  0.39171  0.80052  0.47550  1.0000
  C  Sn199     1.0  0.41588  0.80455  0.44432  1.0000
  C   C304      1.0  0.42160  0.78706  0.43392  1.0000
  C  Sn200     1.0  0.40367  0.76562  0.45397  1.0000
  O  Te197     1.0  0.36127  0.74029  0.50556  1.0000
  O  Te198     1.0  0.38554  0.81774  0.48649  1.0000
  O  Te199     1.0  0.43410  0.82587  0.42391  1.0000
  O  Te200     1.0  0.40983  0.74840  0.44297  1.0000
  Mg  Mg99      1.0  0.41674  0.84387  0.44970  1.0000
  Mg  Mg100     1.0  0.37865  0.72227  0.47963  1.0000
  C  Sn201     1.0  0.23555  0.61593  0.52589  1.0000
  C   C305      1.0  0.21741  0.59467  0.54905  1.0000
  C  Sn202     1.0  0.19647  0.58738  0.52350  1.0000
  C  Sn203     1.0  0.19360  0.60162  0.47365  1.0000
  C   C306      1.0  0.21174  0.62286  0.45049  1.0000
  C  Sn204     1.0  0.23269  0.63017  0.47604  1.0000
  O  Te201     1.0  0.25633  0.62287  0.55213  1.0000
  O  Te202     1.0  0.17857  0.56606  0.54749  1.0000
  O  Te203     1.0  0.17280  0.59466  0.44742  1.0000
  O  Te204     1.0  0.25057  0.65147  0.45204  1.0000
  Mg  Mg101     1.0  0.15353  0.56417  0.49607  1.0000
  Mg  Mg102     1.0  0.27563  0.65337  0.50333  1.0000
  C  Sn205     1.0  0.62885  0.38837  0.40943  1.0000
  C   C307      1.0  0.62964  0.40990  0.42507  1.0000
  C  Sn206     1.0  0.60777  0.41519  0.50517  1.0000
  C  Sn207     1.0  0.58462  0.39862  0.57113  1.0000
  C   C308      1.0  0.58383  0.37711  0.55551  1.0000
  C  Sn208     1.0  0.60570  0.37180  0.47539  1.0000
  O  Te205     1.0  0.65095  0.38346  0.32888  1.0000
  O  Te206     1.0  0.60903  0.43682  0.51923  1.0000
  O  Te207     1.0  0.56251  0.40355  0.65173  1.0000
  O  Te208     1.0  0.60444  0.35019  0.46135  1.0000
  Mg  Mg103     1.0  0.57383  0.43539  0.63977  1.0000
  Mg  Mg104     1.0  0.63964  0.35160  0.34093  1.0000
  C  Sn209     1.0  0.60161  0.19102  0.50593  1.0000
  C   C309      1.0  0.62470  0.20803  0.47264  1.0000
  C  Sn210     1.0  0.62832  0.22896  0.46068  1.0000
  C  Sn211     1.0  0.60844  0.23299  0.48255  1.0000
  C   C310      1.0  0.58537  0.21599  0.51585  1.0000
  C  Sn212     1.0  0.58173  0.19505  0.52781  1.0000
  O  Te209     1.0  0.59840  0.17023  0.51737  1.0000
  O  Te210     1.0  0.65157  0.24569  0.42723  1.0000
  O  Te211     1.0  0.61167  0.25380  0.47108  1.0000
  O  Te212     1.0  0.55849  0.17833  0.56126  1.0000
  Mg  Mg105     1.0  0.64677  0.27125  0.42354  1.0000
  Mg  Mg106     1.0  0.56328  0.15277  0.56508  1.0000
  C  Sn213     1.0  0.80744  0.40542  0.42333  1.0000
  C   C311      1.0  0.78591  0.40992  0.48322  1.0000
  C  Sn214     1.0  0.76299  0.39816  0.59551  1.0000
  C  Sn215     1.0  0.76157  0.38158  0.64918  1.0000
  C   C312      1.0  0.78309  0.37709  0.58933  1.0000
  C  Sn216     1.0  0.80602  0.38884  0.47700  1.0000
  O  Te213     1.0  0.83015  0.41738  0.31115  1.0000
  O  Te214     1.0  0.74172  0.40295  0.65359  1.0000
  O  Te215     1.0  0.73883  0.36962  0.76145  1.0000
  O  Te216     1.0  0.82728  0.38406  0.41896  1.0000
  Mg  Mg107     1.0  0.71508  0.38218  0.80514  1.0000
  Mg  Mg108     1.0  0.85393  0.40483  0.26749  1.0000
  C  Sn217     1.0  0.28968  0.28900  0.49247  1.0000
  C   C313      1.0  0.26835  0.27960  0.46615  1.0000
  C  Sn218     1.0  0.25411  0.25624  0.45670  1.0000
  C  Sn219     1.0  0.26134  0.24198  0.47404  1.0000
  C   C314      1.0  0.28267  0.25137  0.50037  1.0000
  C  Sn220     1.0  0.29692  0.27473  0.50981  1.0000
  O  Te217     1.0  0.30363  0.31239  0.50150  1.0000
  O  Te218     1.0  0.23286  0.24724  0.43024  1.0000
  O  Te219     1.0  0.24737  0.21856  0.46498  1.0000
  O  Te220     1.0  0.31816  0.28373  0.53628  1.0000
  Mg  Mg109     1.0  0.21995  0.21434  0.42737  1.0000
  Mg  Mg110     1.0  0.33107  0.31663  0.53927  1.0000
  C  Sn221     1.0  0.71700  0.99807  0.40487  1.0000
  C   C315      1.0  0.72489  0.98461  0.42159  1.0000
  C  Sn222     1.0  0.74271  0.99549  0.48846  1.0000
  C  Sn223     1.0  0.75285  0.02034  0.53980  1.0000
  C   C316      1.0  0.24190  0.03378  0.52310  1.0000
  C  Sn224     1.0  0.22408  0.02292  0.45621  1.0000
  O  Te221     1.0  0.69917  0.98682  0.33770  1.0000
  O  Te222     1.0  0.75031  0.98167  0.50388  1.0000
  O  Te223     1.0  0.26764  0.03159  0.60700  1.0000
  O  Te224     1.0  0.21648  0.03672  0.44080  1.0000
  Mg  Mg111     1.0  0.77507  0.00517  0.60285  1.0000
  Mg  Mg112     1.0  0.69477  0.01325  0.34195  1.0000
  C  Sn225     1.0  0.98239  0.71398  0.59407  1.0000
  C   C317      1.0  0.96930  0.72058  0.56401  1.0000
  C  Sn226     1.0  0.98119  0.73876  0.49003  1.0000
  C  Sn227     1.0  0.00671  0.75059  0.44503  1.0000
  C   C318      1.0  0.01979  0.74398  0.47506  1.0000
  C  Sn228     1.0  0.00791  0.72580  0.54907  1.0000
  O  Te225     1.0  0.97013  0.69574  0.66816  1.0000
  O  Te226     1.0  0.96771  0.74506  0.46128  1.0000
  O  Te227     1.0  0.01897  0.76883  0.37089  1.0000
  O  Te228     1.0  0.02138  0.71950  0.57779  1.0000
  Mg  Mg113     1.0  0.99266  0.77099  0.35708  1.0000
  Mg  Mg114     1.0  0.99646  0.69357  0.68189  1.0000
  C  Sn229     1.0  0.74630  0.75946  0.48554  1.0000
  C   C319      1.0  0.72465  0.75008  0.46323  1.0000
  C  Sn230     1.0  0.70938  0.72739  0.47013  1.0000
  C  Sn231     1.0  0.71588  0.71381  0.50007  1.0000
  C   C320      1.0  0.73752  0.72320  0.52239  1.0000
  C  Sn232     1.0  0.75280  0.74588  0.51548  1.0000
  O  Te229     1.0  0.76128  0.78218  0.47814  1.0000
  O  Te230     1.0  0.68783  0.71839  0.44738  1.0000
  O  Te231     1.0  0.70088  0.69108  0.50745  1.0000
  O  Te232     1.0  0.77433  0.75489  0.53824  1.0000
  Mg  Mg115     1.0  0.67342  0.68656  0.46871  1.0000
  Mg  Mg116     1.0  0.78875  0.78672  0.51703  1.0000
  C  Sn233     1.0  0.75191  0.00045  0.53273  1.0000
  C   C321      1.0  0.77303  0.01650  0.56106  1.0000
  C  Sn234     1.0  0.78904  0.00873  0.55098  1.0000
  C  Sn235     1.0  0.78384  0.98440  0.51164  1.0000
  C   C322      1.0  0.76274  0.96836  0.48329  1.0000
  C  Sn236     1.0  0.74672  0.97612  0.49338  1.0000
  O  Te233     1.0  0.73617  0.00861  0.54346  1.0000
  O  Te234     1.0  0.30697  0.02511  0.57988  1.0000
  O  Te235     1.0  0.79961  0.97624  0.50093  1.0000
  O  Te236     1.0  0.72574  0.95975  0.46447  1.0000
  Mg  Mg117     1.0  0.82587  0.00538  0.55072  1.0000
  Mg  Mg118     1.0  0.70990  0.97946  0.49351  1.0000
  C  Sn237     1.0  0.01334  0.29312  0.49847  1.0000
  C   C323      1.0  0.02487  0.28744  0.54872  1.0000
  C  Sn238     1.0  0.01686  0.26482  0.55469  1.0000
  C  Sn239     1.0  0.99692  0.24751  0.50938  1.0000
  C   C324      1.0  0.98540  0.25319  0.45914  1.0000
  C  Sn240     1.0  0.99340  0.27581  0.45317  1.0000
  O  Te237     1.0  0.02166  0.31584  0.49343  1.0000
  O  Te238     1.0  0.02867  0.25957  0.60539  1.0000
  O  Te239     1.0  0.98860  0.22477  0.51447  1.0000
  O  Te240     1.0  0.98160  0.28106  0.40247  1.0000
  Mg  Mg119     1.0  0.01064  0.22613  0.59177  1.0000
  Mg  Mg120     1.0  0.99963  0.31449  0.41596  1.0000
  C  Sn241     1.0  0.28160  0.54280  0.69370  1.0000
  C   C325      1.0  0.30638  0.54308  0.59496  1.0000
  C  Sn242     1.0  0.31331  0.52339  0.44758  1.0000
  C  Sn243     1.0  0.29511  0.50301  0.39777  1.0000
  C   C326      1.0  0.27034  0.50274  0.49646  1.0000
  C  Sn244     1.0  0.26339  0.52242  0.64389  1.0000
  O  Te241     1.0  0.27508  0.56269  0.84054  1.0000
  O  Te242     1.0  0.33820  0.52408  0.35097  1.0000
  O  Te243     1.0  0.30164  0.48312  0.25080  1.0000
  O  Te244     1.0  0.23852  0.52174  0.74045  1.0000
  Mg  Mg121     1.0  0.33790  0.49260  0.16136  1.0000
  Mg  Mg122     1.0  0.23880  0.55321  0.93002  1.0000
  C  Sn245     1.0  0.49940  0.79038  0.46497  1.0000
  C   C327      1.0  0.49849  0.77564  0.52995  1.0000
  C  Sn246     1.0  0.47690  0.75768  0.58418  1.0000
  C  Sn247     1.0  0.45577  0.75436  0.57313  1.0000
  C   C328      1.0  0.45669  0.76909  0.50816  1.0000
  C  Sn248     1.0  0.47827  0.78706  0.45392  1.0000
  O  Te245     1.0  0.52118  0.80822  0.41149  1.0000
  O  Te246     1.0  0.47644  0.74317  0.64874  1.0000
  O  Te247     1.0  0.43398  0.73650  0.62668  1.0000
  O  Te248     1.0  0.47874  0.80156  0.38936  1.0000
  Mg  Mg123     1.0  0.44246  0.72129  0.70525  1.0000
  Mg  Mg124     1.0  0.51271  0.82343  0.33273  1.0000
  C  Sn249     1.0  0.21830  0.68744  0.38355  1.0000
  C   C329      1.0  0.22780  0.68439  0.46536  1.0000
  C  Sn250     1.0  0.23803  0.70377  0.58376  1.0000
  C  Sn251     1.0  0.23877  0.72668  0.62127  1.0000
  C   C330      1.0  0.22927  0.72972  0.53951  1.0000
  C  Sn252     1.0  0.21904  0.71035  0.42107  1.0000
  O  Te249     1.0  0.20816  0.66781  0.26565  1.0000
  O  Te250     1.0  0.24741  0.70028  0.66386  1.0000
  O  Te251     1.0  0.24892  0.74631  0.73928  1.0000
  O  Te252     1.0  0.20966  0.71383  0.34102  1.0000
  Mg  Mg125     1.0  0.25934  0.73255  0.81508  1.0000
  Mg  Mg126     1.0  0.19772  0.68158  0.18986  1.0000
  C  Sn253     1.0  0.69587  0.47459  0.68761  1.0000
  C   C331      1.0  0.68193  0.46820  0.59805  1.0000
  C  Sn254     1.0  0.69171  0.47732  0.45950  1.0000
  C  Sn255     1.0  0.71594  0.49314  0.40933  1.0000
  C   C332      1.0  0.72987  0.49952  0.49885  1.0000
  C  Sn256     1.0  0.72010  0.49041  0.63745  1.0000
  O  Te253     1.0  0.68572  0.46526  0.82572  1.0000
  O  Te254     1.0  0.67742  0.47068  0.37198  1.0000
  O  Te255     1.0  0.72609  0.50247  0.27111  1.0000
  O  Te256     1.0  0.73438  0.49704  0.72492  1.0000
  Mg  Mg127     1.0  0.69939  0.48811  0.19222  1.0000
  Mg  Mg128     1.0  0.71243  0.47961  0.90462  1.0000
  C  Sn257     1.0  0.54243  0.25213  0.47908  1.0000
  C   C333      1.0  0.54126  0.23575  0.53031  1.0000
  C  Sn258     1.0  0.52122  0.21539  0.54642  1.0000
  C  Sn259     1.0  0.50195  0.21130  0.51046  1.0000
  C   C334      1.0  0.50312  0.22768  0.45924  1.0000
  C  Sn260     1.0  0.52316  0.24805  0.44313  1.0000
  O  Te257     1.0  0.56264  0.27236  0.46382  1.0000
  O  Te258     1.0  0.52045  0.19927  0.59789  1.0000
  O  Te259     1.0  0.48172  0.19105  0.52577  1.0000
  O  Te260     1.0  0.52393  0.26415  0.39166  1.0000
  Mg  Mg129     1.0  0.48907  0.17433  0.59997  1.0000
  Mg  Mg130     1.0  0.55531  0.28909  0.38945  1.0000
  C  Sn261     1.0  0.75048  0.28760  0.45871  1.0000
  C   C335      1.0  0.76317  0.31030  0.53740  1.0000
  C  Sn262     1.0  0.78162  0.31369  0.57568  1.0000
  C  Sn263     1.0  0.78751  0.29400  0.53433  1.0000
  C   C336      1.0  0.77482  0.27132  0.45566  1.0000
  C  Sn264     1.0  0.75637  0.26791  0.41736  1.0000
  O  Te261     1.0  0.73211  0.28462  0.42161  1.0000
  O  Te262     1.0  0.79404  0.33655  0.65443  1.0000
  O  Te263     1.0  0.80589  0.29699  0.57151  1.0000
  O  Te264     1.0  0.74395  0.24507  0.33863  1.0000
  Mg  Mg131     1.0  0.81762  0.33157  0.67925  1.0000
  Mg  Mg132     1.0  0.72038  0.25003  0.31366  1.0000
  C  Sn265     1.0  0.12944  0.30114  0.40064  1.0000
  C   C337      1.0  0.13954  0.32556  0.44185  1.0000
  C  Sn266     1.0  0.12434  0.33990  0.53529  1.0000
  C  Sn267     1.0  0.09849  0.32961  0.58877  1.0000
  C   C338      1.0  0.08841  0.30520  0.54760  1.0000
  C  Sn268     1.0  0.10360  0.29085  0.45413  1.0000
  O  Te265     1.0  0.14499  0.28714  0.30713  1.0000
  O  Te266     1.0  0.13486  0.36428  0.57490  1.0000
  O  Te267     1.0  0.08295  0.34363  0.68236  1.0000
  O  Te268     1.0  0.09309  0.26649  0.41455  1.0000
  Mg  Mg133     1.0  0.10602  0.37593  0.70498  1.0000
  Mg  Mg134     1.0  0.12191  0.25482  0.28457  1.0000
  C  Sn269     1.0  0.70389  0.81976  0.55778  1.0000
  C   C339      1.0  0.69687  0.79734  0.56356  1.0000
  C  Sn270     1.0  0.67649  0.77984  0.53080  1.0000
  C  Sn271     1.0  0.66285  0.78485  0.49133  1.0000
  C   C340      1.0  0.66988  0.80726  0.48553  1.0000
  C  Sn272     1.0  0.69026  0.82477  0.51830  1.0000
  O  Te269     1.0  0.72433  0.83699  0.59095  1.0000
  O  Te270     1.0  0.66982  0.75756  0.53739  1.0000
  O  Te271     1.0  0.64240  0.76760  0.45815  1.0000
  O  Te272     1.0  0.69693  0.84704  0.51170  1.0000
  Mg  Mg135     1.0  0.64058  0.73995  0.48245  1.0000
  Mg  Mg136     1.0  0.72617  0.86466  0.56652  1.0000
  C  Sn273     1.0  0.18394  0.89464  0.59896  1.0000
  C   C341      1.0  0.20793  0.90940  0.57482  1.0000
  C  Sn274     1.0  0.22678  0.90006  0.50200  1.0000
  C  Sn275     1.0  0.22155  0.87545  0.45217  1.0000
  C   C342      1.0  0.19757  0.86071  0.47629  1.0000
  C  Sn276     1.0  0.17871  0.87004  0.54913  1.0000
  O  Te273     1.0  0.16538  0.90436  0.67199  1.0000
  O  Te274     1.0  0.25061  0.91517  0.47920  1.0000
  O  Te275     1.0  0.24013  0.86574  0.37910  1.0000
  O  Te276     1.0  0.15489  0.85495  0.57190  1.0000
  Mg  Mg137     1.0  0.26966  0.89353  0.37417  1.0000
  Mg  Mg138     1.0  0.13584  0.87656  0.67683  1.0000
  C  Sn277     1.0  0.88345  0.69216  0.39358  1.0000
  C   C343      1.0  0.86781  0.67171  0.44268  1.0000
  C  Sn278     1.0  0.87272  0.66448  0.53001  1.0000
  C  Sn279     1.0  0.89369  0.67800  0.56920  1.0000
  C   C344      1.0  0.90931  0.69844  0.52015  1.0000
  C  Sn280     1.0  0.90442  0.70568  0.43278  1.0000
  O  Te277     1.0  0.87819  0.69905  0.30639  1.0000
  O  Te278     1.0  0.85682  0.64396  0.57771  1.0000
  O  Te279     1.0  0.89894  0.67109  0.65646  1.0000
  O  Te280     1.0  0.92030  0.72619  0.38512  1.0000
  Mg  Mg139     1.0  0.87179  0.64183  0.69445  1.0000
  Mg  Mg140     1.0  0.90535  0.72834  0.26847  1.0000
  C  Sn281     1.0  0.29485  0.18454  0.49075  1.0000
  C   C345      1.0  0.29949  0.20809  0.52055  1.0000
  C  Sn282     1.0  0.32202  0.22458  0.52132  1.0000
  C  Sn283     1.0  0.34031  0.21737  0.49157  1.0000
  C   C346      1.0  0.33567  0.19383  0.46176  1.0000
  C  Sn284     1.0  0.31314  0.17734  0.46100  1.0000
  O  Te281     1.0  0.27220  0.16837  0.49056  1.0000
  O  Te282     1.0  0.32623  0.24802  0.55147  1.0000
  O  Te283     1.0  0.36297  0.23357  0.49179  1.0000
  O  Te284     1.0  0.30893  0.15390  0.43084  1.0000
  Mg  Mg141     1.0  0.36000  0.26349  0.53892  1.0000
  Mg  Mg142     1.0  0.27517  0.13842  0.44326  1.0000
  C  Sn285     1.0  0.82308  0.11904  0.36948  1.0000
  C   C347      1.0  0.81042  0.13472  0.43722  1.0000
  C  Sn286     1.0  0.78487  0.12936  0.54447  1.0000
  C  Sn287     1.0  0.77170  0.10789  0.58495  1.0000
  C   C348      1.0  0.78436  0.09224  0.51725  1.0000
  C  Sn288     1.0  0.80991  0.09758  0.40996  1.0000
  O  Te285     1.0  0.84862  0.12476  0.26255  1.0000
  O  Te286     1.0  0.77262  0.14530  0.61060  1.0000
  O  Te287     1.0  0.74614  0.10219  0.69197  1.0000
  O  Te288     1.0  0.82216  0.08165  0.34387  1.0000
  Mg  Mg143     1.0  0.73773  0.12960  0.75050  1.0000
  Mg  Mg144     1.0  0.85705  0.09734  0.20404  1.0000
