data_image0
_chemical_formula_structural       H264C420N72SnCSn2CSnTe4Mg2SnCSn2CSnTe4Mg2SnCSn2CSnTe4Mg2SnCSn2CSnTe4Mg2SnCSn2CSnTe4Mg2SnCSn2CSnTe4Mg2SnCSn2CSnTe4Mg2SnCSn2CSnTe4Mg2SnCSn2CSnTe4Mg2SnCSn2CSnTe4Mg2SnCSn2CSnTe4Mg2SnCSn2CSnTe4Mg2SnCSn2CSnTe4Mg2SnCSn2CSnTe4Mg2SnCSn2CSnTe4Mg2SnCSn2CSnTe4Mg2SnCSn2CSnTe4Mg2SnCSn2CSnTe4Mg2SnCSn2CSnTe4Mg2SnCSn2CSnTe4Mg2SnCSn2CSnTe4Mg2SnCSn2CSnTe4Mg2SnCSn2CSnTe4Mg2SnCSn2CSnTe4Mg2SnCSn2CSnTe4Mg2SnCSn2CSnTe4Mg2SnCSn2CSnTe4Mg2SnCSn2CSnTe4Mg2SnCSn2CSnTe4Mg2SnCSn2CSnTe4Mg2SnCSn2CSnTe4Mg2SnCSn2CSnTe4Mg2SnCSn2CSnTe4Mg2SnCSn2CSnTe4Mg2SnCSn2CSnTe4Mg2SnCSn2CSnTe4Mg2
_chemical_formula_sum              "H264 C492 N72 Sn144 Te144 Mg72"
_cell_length_a       69.1783
_cell_length_b       69.3234
_cell_length_c       9.38135
_cell_angle_alpha    121.047
_cell_angle_beta     54.8252
_cell_angle_gamma    120.133

_symmetry_space_group_name_H-M    'P1'
_space_group_IT_number       1

loop_
  _space_group_symop_operation_xyz
  'x, y, z'

loop_
  _atom_site_type_symbol
  _atom_site_label
  _atom_site_symmetry_multiplicity
  _atom_site_fract_x
  _atom_site_fract_y
  _atom_site_fract_z
  _atom_site_occupancy
  H   H1        1.0  0.18836  0.45769  0.04844  1.0000
  H   H2        1.0  0.53734  0.73586  0.06777  1.0000
  H   H3        1.0  0.26084  0.81217  0.08030  1.0000
  H   H4        1.0  0.80256  0.54644  0.09336  1.0000
  H   H5        1.0  0.45958  0.26228  0.93372  1.0000
  H   H6        1.0  0.73716  0.18706  0.92744  1.0000
  H   H7        1.0  0.22749  0.38182  0.98598  1.0000
  H   H8        1.0  0.61791  0.84057  0.96429  1.0000
  H   H9        1.0  0.15489  0.76989  0.99060  1.0000
  H   H10       1.0  0.77310  0.61474  0.97988  1.0000
  H   H11       1.0  0.38280  0.15429  0.98149  1.0000
  H   H12       1.0  0.84412  0.22598  0.98331  1.0000
  H   H13       1.0  0.46707  0.73266  0.19815  1.0000
  H   H14       1.0  0.26770  0.75710  0.15165  1.0000
  H   H15       1.0  0.74011  0.47841  0.11496  1.0000
  H   H16       1.0  0.43906  0.69206  0.17908  1.0000
  H   H17       1.0  0.31006  0.76762  0.10819  1.0000
  H   H18       1.0  0.75207  0.44714  0.06839  1.0000
  H   H19       1.0  0.50142  0.66486  0.83017  1.0000
  H   H20       1.0  0.33499  0.82038  0.88251  1.0000
  H   H21       1.0  0.82865  0.48895  0.89393  1.0000
  H   H22       1.0  0.52943  0.70499  0.82274  1.0000
  H   H23       1.0  0.29393  0.80797  0.89798  1.0000
  H   H24       1.0  0.81722  0.51927  0.92275  1.0000
  H   H25       1.0  0.13742  0.75608  0.75244  1.0000
  H   H26       1.0  0.75390  0.62878  0.98999  1.0000
  H   H27       1.0  0.09750  0.73469  0.72452  1.0000
  H   H28       1.0  0.73016  0.64634  0.99586  1.0000
  H   H29       1.0  0.06555  0.78857  0.20280  1.0000
  H   H30       1.0  0.78838  0.71167  0.00236  1.0000
  H   H31       1.0  0.10551  0.80968  0.23143  1.0000
  H   H32       1.0  0.81253  0.69433  0.99506  1.0000
  H   H33       1.0  0.24368  0.64570  0.04814  1.0000
  H   H34       1.0  0.60350  0.25042  0.01736  1.0000
  H   H35       1.0  0.17743  0.56964  0.00304  1.0000
  H   H36       1.0  0.60891  0.17856  0.97411  1.0000
  H   H37       1.0  0.23864  0.24049  0.87099  1.0000
  H   H38       1.0  0.75084  0.98745  0.03895  1.0000
  H   H39       1.0  0.76527  0.75543  0.05537  1.0000
  H   H40       1.0  0.24511  0.01232  0.99428  1.0000
  H   H41       1.0  0.30570  0.28537  0.07576  1.0000
  H   H42       1.0  0.71749  0.02129  0.90049  1.0000
  H   H43       1.0  0.69002  0.71230  0.94399  1.0000
  H   H44       1.0  0.28424  0.97276  0.03104  1.0000
  H   H45       1.0  0.16588  0.31912  0.05670  1.0000
  H   H46       1.0  0.67947  0.85241  0.03511  1.0000
  H   H47       1.0  0.14688  0.82943  0.01587  1.0000
  H   H48       1.0  0.83011  0.68117  0.00074  1.0000
  H   H49       1.0  0.31596  0.14652  0.99575  1.0000
  H   H50       1.0  0.85114  0.16719  0.98018  1.0000
  H   H51       1.0  0.26845  0.45821  0.93099  1.0000
  H   H52       1.0  0.54397  0.79477  0.87749  1.0000
  H   H53       1.0  0.20124  0.73219  0.97107  1.0000
  H   H54       1.0  0.73812  0.53227  0.93581  1.0000
  H   H55       1.0  0.45701  0.19979  0.07490  1.0000
  H   H56       1.0  0.80021  0.26505  0.01225  1.0000
  H   H57       1.0  0.17613  0.40870  0.00702  1.0000
  H   H58       1.0  0.58214  0.77186  0.10267  1.0000
  H   H59       1.0  0.22511  0.82358  0.08957  1.0000
  H   H60       1.0  0.81411  0.59370  0.10549  1.0000
  H   H61       1.0  0.41487  0.22620  0.89696  1.0000
  H   H62       1.0  0.77145  0.17407  0.92574  1.0000
  H   H63       1.0  0.16185  0.37321  0.98915  1.0000
  H   H64       1.0  0.62282  0.78607  0.01966  1.0000
  H   H65       1.0  0.21125  0.83638  0.02527  1.0000
  H   H66       1.0  0.83680  0.62358  0.00669  1.0000
  H   H67       1.0  0.37453  0.21155  0.98506  1.0000
  H   H68       1.0  0.78541  0.16174  0.99742  1.0000
  H   H69       1.0  0.27867  0.48856  0.11968  1.0000
  H   H70       1.0  0.49215  0.19420  0.87969  1.0000
  H   H71       1.0  0.80701  0.27965  0.84772  1.0000
  H   H72       1.0  0.31716  0.52085  0.11602  1.0000
  H   H73       1.0  0.52678  0.19080  0.87180  1.0000
  H   H74       1.0  0.81145  0.31964  0.89416  1.0000
  H   H75       1.0  0.30586  0.55027  0.87318  1.0000
  H   H76       1.0  0.55162  0.26632  0.09366  1.0000
  H   H77       1.0  0.73221  0.30341  0.14811  1.0000
  H   H78       1.0  0.27014  0.51617  0.84661  1.0000
  H   H79       1.0  0.51566  0.26929  0.12334  1.0000
  H   H80       1.0  0.72752  0.26528  0.13416  1.0000
  H   H81       1.0  0.13169  0.30235  0.09952  1.0000
  H   H82       1.0  0.69695  0.84032  0.06559  1.0000
  H   H83       1.0  0.16542  0.85816  0.94252  1.0000
  H   H84       1.0  0.86373  0.69823  0.96259  1.0000
  H   H85       1.0  0.83193  0.13871  0.06278  1.0000
  H   H86       1.0  0.09138  0.27815  0.09157  1.0000
  H   H87       1.0  0.72070  0.82309  0.06233  1.0000
  H   H88       1.0  0.18316  0.89873  0.93835  1.0000
  H   H89       1.0  0.90541  0.72099  0.94563  1.0000
  H   H90       1.0  0.81448  0.09746  0.05447  1.0000
  H   H91       1.0  0.09244  0.32862  0.94674  1.0000
  H   H92       1.0  0.66786  0.75502  0.97592  1.0000
  H   H93       1.0  0.23833  0.91132  0.08630  1.0000
  H   H94       1.0  0.90776  0.66744  0.03140  1.0000
  H   H95       1.0  0.75825  0.08728  0.92782  1.0000
  H   H96       1.0  0.13309  0.35285  0.94983  1.0000
  H   H97       1.0  0.64416  0.77196  0.97363  1.0000
  H   H98       1.0  0.21973  0.87098  0.10191  1.0000
  H   H99       1.0  0.86591  0.64422  0.05028  1.0000
  H   H100      1.0  0.77683  0.12791  0.91956  1.0000
  H   H101      1.0  0.24560  0.61132  0.05467  1.0000
  H   H102      1.0  0.63948  0.25186  0.02161  1.0000
  H   H103      1.0  0.17556  0.60374  0.99281  1.0000
  H   H104      1.0  0.57236  0.17706  0.96962  1.0000
  H   H105      1.0  0.26048  0.21916  0.85298  1.0000
  H   H106      1.0  0.76925  0.02914  0.05638  1.0000
  H   H107      1.0  0.74435  0.77732  0.06947  1.0000
  H   H108      1.0  0.22353  0.97154  0.00636  1.0000
  H   H109      1.0  0.28358  0.30672  0.09508  1.0000
  H   H110      1.0  0.69862  0.97916  0.88575  1.0000
  H   H111      1.0  0.71096  0.69030  0.92920  1.0000
  H   H112      1.0  0.30589  0.01361  0.01933  1.0000
  H   H113      1.0  0.75564  0.33798  0.07183  1.0000
  H   H114      1.0  0.67075  0.41848  0.91408  1.0000
  H   H115      1.0  0.57465  0.24607  0.02386  1.0000
  H   H116      1.0  0.24598  0.65664  0.85051  1.0000
  H   H117      1.0  0.33406  0.57275  0.98337  1.0000
  H   H118      1.0  0.41907  0.76052  0.08076  1.0000
  H   H119      1.0  0.81820  0.44936  0.88863  1.0000
  H   H120      1.0  0.53974  0.35967  0.10119  1.0000
  H   H121      1.0  0.63518  0.19257  0.10677  1.0000
  H   H122      1.0  0.18707  0.54158  0.97500  1.0000
  H   H123      1.0  0.45986  0.63772  0.92558  1.0000
  H   H124      1.0  0.36504  0.81423  0.91698  1.0000
  H   H125      1.0  0.26824  0.21016  0.01103  1.0000
  H   H126      1.0  0.78670  0.05912  0.99260  1.0000
  H   H127      1.0  0.94257  0.72539  0.93061  1.0000
  H   H128      1.0  0.72713  0.79014  0.03576  1.0000
  H   H129      1.0  0.21294  0.93640  0.96869  1.0000
  H   H130      1.0  0.05548  0.27230  0.06706  1.0000
  H   H131      1.0  0.27388  0.31759  0.98156  1.0000
  H   H132      1.0  0.67708  0.95460  0.05734  1.0000
  H   H133      1.0  0.05446  0.73065  0.83794  1.0000
  H   H134      1.0  0.72513  0.67934  0.00987  1.0000
  H   H135      1.0  0.31067  0.05124  0.12046  1.0000
  H   H136      1.0  0.95392  0.27135  0.97867  1.0000
  H   H137      1.0  0.19802  0.45382  0.41105  1.0000
  H   H138      1.0  0.54793  0.73377  0.45229  1.0000
  H   H139      1.0  0.26552  0.80682  0.49652  1.0000
  H   H140      1.0  0.81108  0.54233  0.45207  1.0000
  H   H141      1.0  0.45179  0.26946  0.58803  1.0000
  H   H142      1.0  0.73529  0.19184  0.49343  1.0000
  H   H143      1.0  0.22814  0.38372  0.50325  1.0000
  H   H144      1.0  0.61782  0.84546  0.49777  1.0000
  H   H145      1.0  0.15602  0.77133  0.48019  1.0000
  H   H146      1.0  0.77294  0.61800  0.49723  1.0000
  H   H147      1.0  0.38364  0.15689  0.50147  1.0000
  H   H148      1.0  0.84558  0.22856  0.49739  1.0000
  H   H149      1.0  0.26028  0.52120  0.39827  1.0000
  H   H150      1.0  0.28110  0.74112  0.32131  1.0000
  H   H151      1.0  0.51119  0.28290  0.69765  1.0000
  H   H152      1.0  0.24833  0.55367  0.46116  1.0000
  H   H153      1.0  0.32085  0.75033  0.31753  1.0000
  H   H154      1.0  0.54264  0.32102  0.66529  1.0000
  H   H155      1.0  0.17153  0.51234  0.63729  1.0000
  H   H156      1.0  0.32034  0.82271  0.63134  1.0000
  H   H157      1.0  0.51509  0.32170  0.35725  1.0000
  H   H158      1.0  0.18283  0.48092  0.59685  1.0000
  H   H159      1.0  0.27926  0.81244  0.65834  1.0000
  H   H160      1.0  0.48486  0.28336  0.38143  1.0000
  H   H161      1.0  0.63513  0.87424  0.43460  1.0000
  H   H162      1.0  0.13573  0.75306  0.28921  1.0000
  H   H163      1.0  0.75077  0.63677  0.58309  1.0000
  H   H164      1.0  0.87153  0.24953  0.60840  1.0000
  H   H165      1.0  0.65322  0.91414  0.41215  1.0000
  H   H166      1.0  0.09465  0.73074  0.28183  1.0000
  H   H167      1.0  0.72762  0.65447  0.58216  1.0000
  H   H168      1.0  0.91293  0.27187  0.60213  1.0000
  H   H169      1.0  0.70863  0.92919  0.56453  1.0000
  H   H170      1.0  0.07174  0.79359  0.62246  1.0000
  H   H171      1.0  0.79388  0.70958  0.41440  1.0000
  H   H172      1.0  0.92637  0.20764  0.43719  1.0000
  H   H173      1.0  0.69038  0.88984  0.59539  1.0000
  H   H174      1.0  0.11243  0.81589  0.63751  1.0000
  H   H175      1.0  0.81763  0.69102  0.40161  1.0000
  H   H176      1.0  0.88537  0.18497  0.43255  1.0000
  H   H177      1.0  0.35854  0.60326  0.46973  1.0000
  H   H178      1.0  0.25071  0.64143  0.43690  1.0000
  H   H179      1.0  0.64783  0.39618  0.43338  1.0000
  H   H180      1.0  0.43071  0.60819  0.49319  1.0000
  H   H181      1.0  0.17839  0.57066  0.53554  1.0000
  H   H182      1.0  0.56717  0.39474  0.55612  1.0000
  H   H183      1.0  0.23617  0.24341  0.43312  1.0000
  H   H184      1.0  0.76684  0.75906  0.55623  1.0000
  H   H185      1.0  0.24972  0.01101  0.45090  1.0000
  H   H186      1.0  0.30995  0.28759  0.56183  1.0000
  H   H187      1.0  0.69159  0.71493  0.44481  1.0000
  H   H188      1.0  0.28439  0.97677  0.57601  1.0000
  H   H189      1.0  0.16828  0.31948  0.53113  1.0000
  H   H190      1.0  0.68126  0.85625  0.54517  1.0000
  H   H191      1.0  0.15269  0.83002  0.46062  1.0000
  H   H192      1.0  0.82983  0.68455  0.51387  1.0000
  H   H193      1.0  0.31583  0.15067  0.53756  1.0000
  H   H194      1.0  0.84805  0.17128  0.54658  1.0000
  H   H195      1.0  0.26234  0.46632  0.56489  1.0000
  H   H196      1.0  0.53674  0.80438  0.52268  1.0000
  H   H197      1.0  0.19472  0.73323  0.52494  1.0000
  H   H198      1.0  0.73055  0.54160  0.57521  1.0000
  H   H199      1.0  0.46828  0.19640  0.42634  1.0000
  H   H200      1.0  0.80647  0.26476  0.44090  1.0000
  H   H201      1.0  0.18709  0.40575  0.38422  1.0000
  H   H202      1.0  0.59261  0.76942  0.49162  1.0000
  H   H203      1.0  0.23168  0.82087  0.51063  1.0000
  H   H204      1.0  0.82343  0.59087  0.48785  1.0000
  H   H205      1.0  0.40657  0.23402  0.54849  1.0000
  H   H206      1.0  0.76832  0.18006  0.51116  1.0000
  H   H207      1.0  0.16476  0.37478  0.47013  1.0000
  H   H208      1.0  0.62715  0.78886  0.49146  1.0000
  H   H209      1.0  0.21014  0.83847  0.56178  1.0000
  H   H210      1.0  0.83902  0.62567  0.48603  1.0000
  H   H211      1.0  0.37842  0.21113  0.44522  1.0000
  H   H212      1.0  0.78983  0.16200  0.45518  1.0000
  H   H213      1.0  0.72169  0.50913  0.37323  1.0000
  H   H214      1.0  0.68323  0.47701  0.37912  1.0000
  H   H215      1.0  0.68778  0.45489  0.70713  1.0000
  H   H216      1.0  0.72571  0.48759  0.70896  1.0000
  H   H217      1.0  0.16106  0.86490  0.55424  1.0000
  H   H218      1.0  0.86746  0.69835  0.41898  1.0000
  H   H219      1.0  0.30477  0.15884  0.41620  1.0000
  H   H220      1.0  0.17896  0.90593  0.55876  1.0000
  H   H221      1.0  0.90910  0.72055  0.40214  1.0000
  H   H222      1.0  0.28218  0.17599  0.40431  1.0000
  H   H223      1.0  0.24721  0.90819  0.48479  1.0000
  H   H224      1.0  0.90699  0.67039  0.55124  1.0000
  H   H225      1.0  0.33103  0.24492  0.54258  1.0000
  H   H226      1.0  0.22985  0.86669  0.47212  1.0000
  H   H227      1.0  0.86451  0.64811  0.57577  1.0000
  H   H228      1.0  0.35269  0.22822  0.56905  1.0000
  H   H229      1.0  0.39385  0.63959  0.46431  1.0000
  H   H230      1.0  0.25366  0.60831  0.45419  1.0000
  H   H231      1.0  0.61188  0.36025  0.46780  1.0000
  H   H232      1.0  0.39560  0.57173  0.49788  1.0000
  H   H233      1.0  0.17494  0.60389  0.52346  1.0000
  H   H234      1.0  0.60295  0.43096  0.52663  1.0000
  H   H235      1.0  0.25927  0.22180  0.39537  1.0000
  H   H236      1.0  0.74522  0.78033  0.57156  1.0000
  H   H237      1.0  0.22993  0.96949  0.44868  1.0000
  H   H238      1.0  0.28700  0.30942  0.59603  1.0000
  H   H239      1.0  0.71317  0.69351  0.42980  1.0000
  H   H240      1.0  0.30409  0.01800  0.57865  1.0000
  H   H241      1.0  0.76114  0.33301  0.44396  1.0000
  H   H242      1.0  0.65577  0.43326  0.63212  1.0000
  H   H243      1.0  0.57843  0.24339  0.47991  1.0000
  H   H244      1.0  0.23468  0.66817  0.59656  1.0000
  H   H245      1.0  0.32827  0.58111  0.61830  1.0000
  H   H246      1.0  0.41934  0.76348  0.60745  1.0000
  H   H247      1.0  0.80825  0.45820  0.56404  1.0000
  H   H248      1.0  0.55182  0.35361  0.39900  1.0000
  H   H249      1.0  0.64362  0.18518  0.47055  1.0000
  H   H250      1.0  0.18328  0.55326  0.64743  1.0000
  H   H251      1.0  0.44654  0.65094  0.63832  1.0000
  H   H252      1.0  0.35411  0.81125  0.54967  1.0000
  H   H253      1.0  0.27549  0.20918  0.43746  1.0000
  H   H254      1.0  0.79134  0.05784  0.40021  1.0000
  H   H255      1.0  0.94569  0.72468  0.40138  1.0000
  H   H256      1.0  0.73104  0.79124  0.49031  1.0000
  H   H257      1.0  0.21100  0.94165  0.55515  1.0000
  H   H258      1.0  0.06311  0.26936  0.46933  1.0000
  H   H259      1.0  0.27588  0.31586  0.44099  1.0000
  H   H260      1.0  0.68362  0.95149  0.42531  1.0000
  H   H261      1.0  0.05333  0.72835  0.37421  1.0000
  H   H262      1.0  0.72521  0.68539  0.55116  1.0000
  H   H263      1.0  0.32032  0.04867  0.52518  1.0000
  H   H264      1.0  0.95161  0.27389  0.56234  1.0000
  C   C1        1.0  0.20607  0.45792  0.01902  1.0000
  C   C2        1.0  0.53887  0.74860  0.02478  1.0000
  C   C3        1.0  0.24806  0.79464  0.05609  1.0000
  C   C4        1.0  0.78894  0.54289  0.05298  1.0000
  C   C5        1.0  0.45904  0.24875  0.96561  1.0000
  C   C6        1.0  0.75076  0.20413  0.94620  1.0000
  C   C7        1.0  0.20898  0.43794  0.99538  1.0000
  C   C8        1.0  0.55915  0.76843  0.00468  1.0000
  C   C9        1.0  0.22741  0.79114  0.04449  1.0000
  C   C10       1.0  0.78787  0.56077  0.03325  1.0000
  C   C11       1.0  0.43933  0.22834  0.97852  1.0000
  C   C12       1.0  0.77126  0.20678  0.95525  1.0000
  C   C13       1.0  0.24876  0.47918  0.98337  1.0000
  C   C14       1.0  0.51993  0.76341  0.95826  1.0000
  C   C15       1.0  0.23438  0.75252  0.01646  1.0000
  C   C16       1.0  0.75232  0.51691  0.99427  1.0000
  C   C17       1.0  0.47904  0.23263  0.01261  1.0000
  C   C18       1.0  0.76645  0.24609  0.97379  1.0000
  C   C19       1.0  0.20891  0.37096  0.99979  1.0000
  C   C20       1.0  0.62778  0.83507  0.98716  1.0000
  C   C21       1.0  0.16172  0.78828  0.99988  1.0000
  C   C22       1.0  0.79054  0.62626  0.98782  1.0000
  C   C23       1.0  0.37135  0.16101  0.98444  1.0000
  C   C24       1.0  0.83734  0.20811  0.98467  1.0000
  C   C25       1.0  0.19858  0.34877  0.02091  1.0000
  C   C26       1.0  0.65019  0.84973  0.00028  1.0000
  C   C27       1.0  0.14821  0.79839  0.00382  1.0000
  C   C28       1.0  0.79971  0.64956  0.98990  1.0000
  C   C29       1.0  0.34785  0.14730  0.98959  1.0000
  C   C30       1.0  0.85081  0.19869  0.98870  1.0000
  C   C31       1.0  0.50055  0.72198  0.00438  1.0000
  C   C32       1.0  0.27709  0.78140  0.02595  1.0000
  C   C33       1.0  0.77765  0.50145  0.01825  1.0000
  C   C34       1.0  0.13600  0.32963  0.02423  1.0000
  C   C35       1.0  0.66807  0.80776  0.02399  1.0000
  C   C36       1.0  0.19118  0.86108  0.02113  1.0000
  C   C37       1.0  0.86106  0.66887  0.00457  1.0000
  C   C38       1.0  0.80600  0.13676  0.99124  1.0000
  C   C39       1.0  0.47480  0.71796  0.11090  1.0000
  C   C40       1.0  0.28230  0.77040  0.08618  1.0000
  C   C41       1.0  0.75954  0.48077  0.06128  1.0000
  C   C42       1.0  0.45895  0.69521  0.10390  1.0000
  C   C43       1.0  0.30590  0.77637  0.06532  1.0000
  C   C44       1.0  0.76622  0.46305  0.03670  1.0000
  C   C45       1.0  0.46816  0.67561  0.00058  1.0000
  C   C46       1.0  0.32550  0.79433  0.99147  1.0000
  C   C47       1.0  0.79111  0.46542  0.97413  1.0000
  C   C48       1.0  0.49393  0.67964  0.90565  1.0000
  C   C49       1.0  0.32033  0.80629  0.93933  1.0000
  C   C50       1.0  0.80933  0.48636  0.93795  1.0000
  C   C51       1.0  0.50963  0.70233  0.90395  1.0000
  C   C52       1.0  0.29681  0.79960  0.95297  1.0000
  C   C53       1.0  0.80253  0.50376  0.95818  1.0000
  C   C54       1.0  0.12156  0.76294  0.85229  1.0000
  C   C55       1.0  0.76186  0.64688  0.99158  1.0000
  C   C56       1.0  0.09917  0.75113  0.83648  1.0000
  C   C57       1.0  0.74835  0.65681  0.99503  1.0000
  C   C58       1.0  0.07892  0.76056  0.96016  1.0000
  C   C59       1.0  0.75791  0.68017  0.99622  1.0000
  C   C60       1.0  0.08144  0.78176  0.10430  1.0000
  C   C61       1.0  0.78130  0.69341  0.99699  1.0000
  C   C62       1.0  0.10376  0.79352  0.11917  1.0000
  C   C63       1.0  0.79464  0.68342  0.99366  1.0000
  C   C64       1.0  0.21004  0.62683  0.01081  1.0000
  C   C65       1.0  0.58485  0.21346  0.99572  1.0000
  C   C66       1.0  0.22988  0.62872  0.02832  1.0000
  C   C67       1.0  0.60402  0.23475  0.01323  1.0000
  C   C68       1.0  0.19224  0.58609  0.00931  1.0000
  C   C69       1.0  0.60731  0.19429  0.98642  1.0000
  C   C70       1.0  0.25955  0.27486  0.98454  1.0000
  C   C71       1.0  0.72308  0.98056  0.96675  1.0000
  C   C72       1.0  0.73960  0.72158  0.99429  1.0000
  C   C73       1.0  0.27670  0.01608  0.00995  1.0000
  C   C74       1.0  0.25305  0.25010  0.91914  1.0000
  C   C75       1.0  0.74371  0.99493  0.00775  1.0000
  C   C76       1.0  0.74879  0.74620  0.03058  1.0000
  C   C77       1.0  0.25341  0.00361  0.00491  1.0000
  C   C78       1.0  0.29094  0.27575  0.03172  1.0000
  C   C79       1.0  0.72426  0.01374  0.93433  1.0000
  C   C80       1.0  0.70640  0.72148  0.97012  1.0000
  C   C81       1.0  0.27574  0.98154  0.02313  1.0000
  C   C82       1.0  0.20643  0.40346  0.97884  1.0000
  C   C83       1.0  0.59419  0.79788  0.98577  1.0000
  C   C84       1.0  0.19768  0.79213  0.02008  1.0000
  C   C85       1.0  0.79278  0.59303  0.00266  1.0000
  C   C86       1.0  0.40491  0.19843  0.99042  1.0000
  C   C87       1.0  0.80083  0.20495  0.97604  1.0000
  C   C88       1.0  0.19541  0.37998  0.99306  1.0000
  C   C89       1.0  0.61775  0.81236  0.99832  1.0000
  C   C90       1.0  0.18420  0.80223  0.01362  1.0000
  C   C91       1.0  0.80358  0.61709  0.99814  1.0000
  C   C92       1.0  0.38090  0.18418  0.98348  1.0000
  C   C93       1.0  0.81406  0.19465  0.98332  1.0000
  C   C94       1.0  0.17429  0.33611  0.03743  1.0000
  C   C95       1.0  0.66254  0.84081  0.02012  1.0000
  C   C96       1.0  0.15760  0.82225  0.01646  1.0000
  C   C97       1.0  0.82269  0.66309  0.99741  1.0000
  C   C98       1.0  0.33442  0.15703  0.98767  1.0000
  C   C99       1.0  0.84055  0.17510  0.98534  1.0000
  C   C100      1.0  0.23148  0.43792  0.96450  1.0000
  C   C101      1.0  0.56143  0.78484  0.94564  1.0000
  C   C102      1.0  0.21021  0.76863  0.01386  1.0000
  C   C103      1.0  0.77007  0.55711  0.98444  1.0000
  C   C104      1.0  0.43817  0.21078  0.02078  1.0000
  C   C105      1.0  0.78933  0.22883  0.97834  1.0000
  C   C106      1.0  0.25114  0.45842  0.95674  1.0000
  C   C107      1.0  0.54196  0.78195  0.92152  1.0000
  C   C108      1.0  0.21382  0.74969  0.00180  1.0000
  C   C109      1.0  0.75207  0.53529  0.97106  1.0000
  C   C110      1.0  0.45796  0.21308  0.03927  1.0000
  C   C111      1.0  0.78678  0.24802  0.98589  1.0000
  C   C112      1.0  0.22587  0.47885  0.00888  1.0000
  C   C113      1.0  0.51926  0.74540  0.99781  1.0000
  C   C114      1.0  0.25261  0.77541  0.03531  1.0000
  C   C115      1.0  0.77223  0.52017  0.02429  1.0000
  C   C116      1.0  0.47886  0.25134  0.98604  1.0000
  C   C117      1.0  0.74742  0.22368  0.96096  1.0000
  C   C118      1.0  0.16063  0.34424  0.02405  1.0000
  C   C119      1.0  0.65360  0.81766  0.02205  1.0000
  C   C120      1.0  0.18060  0.83640  0.02184  1.0000
  C   C121      1.0  0.83652  0.65427  0.00288  1.0000
  C   C122      1.0  0.34375  0.17996  0.98148  1.0000
  C   C123      1.0  0.81704  0.16132  0.98825  1.0000
  C   C124      1.0  0.17168  0.36651  0.00280  1.0000
  C   C125      1.0  0.63059  0.80385  0.01591  1.0000
  C   C126      1.0  0.19342  0.82587  0.02187  1.0000
  C   C127      1.0  0.82652  0.63100  0.00403  1.0000
  C   C128      1.0  0.36712  0.19342  0.98156  1.0000
  C   C129      1.0  0.80391  0.17165  0.98942  1.0000
  C   C130      1.0  0.27098  0.49975  0.98496  1.0000
  C   C131      1.0  0.50066  0.23193  0.00610  1.0000
  C   C132      1.0  0.76695  0.26876  0.98706  1.0000
  C   C133      1.0  0.12424  0.78455  0.99218  1.0000
  C   C134      1.0  0.78544  0.65988  0.98995  1.0000
  C   C135      1.0  0.28510  0.50160  0.05862  1.0000
  C   C136      1.0  0.50461  0.20991  0.93415  1.0000
  C   C137      1.0  0.79041  0.28500  0.92041  1.0000
  C   C138      1.0  0.30649  0.52000  0.06093  1.0000
  C   C139      1.0  0.52424  0.20797  0.92714  1.0000
  C   C140      1.0  0.79314  0.30755  0.94377  1.0000
  C   C141      1.0  0.31398  0.53816  0.99755  1.0000
  C   C142      1.0  0.54144  0.22837  0.98632  1.0000
  C   C143      1.0  0.77210  0.31448  0.02371  1.0000
  C   C144      1.0  0.29992  0.53654  0.92603  1.0000
  C   C145      1.0  0.53820  0.25035  0.04999  1.0000
  C   C146      1.0  0.74869  0.29843  0.08694  1.0000
  C   C147      1.0  0.27950  0.51733  0.91276  1.0000
  C   C148      1.0  0.51795  0.25205  0.06483  1.0000
  C   C149      1.0  0.74613  0.27640  0.07428  1.0000
  C   C150      1.0  0.12363  0.30822  0.06307  1.0000
  C   C151      1.0  0.69019  0.82162  0.04557  1.0000
  C   C152      1.0  0.18105  0.86963  0.97785  1.0000
  C   C153      1.0  0.87280  0.69111  0.97991  1.0000
  C   C154      1.0  0.81614  0.12759  0.02923  1.0000
  C   C155      1.0  0.10064  0.29453  0.05974  1.0000
  C   C156      1.0  0.70376  0.81188  0.04352  1.0000
  C   C157      1.0  0.19123  0.89268  0.97414  1.0000
  C   C158      1.0  0.89652  0.70410  0.96893  1.0000
  C   C159      1.0  0.80621  0.10425  0.02598  1.0000
  C   C160      1.0  0.08916  0.30169  0.01817  1.0000
  C   C161      1.0  0.69570  0.78785  0.02169  1.0000
  C   C162      1.0  0.21208  0.90792  0.01171  1.0000
  C   C163      1.0  0.90967  0.69562  0.98446  1.0000
  C   C164      1.0  0.78516  0.08950  0.99004  1.0000
  C   C165      1.0  0.10135  0.32307  0.97930  1.0000
  C   C166      1.0  0.67384  0.77375  0.99708  1.0000
  C   C167      1.0  0.22230  0.89955  0.05572  1.0000
  C   C168      1.0  0.89790  0.67372  0.01412  1.0000
  C   C169      1.0  0.77451  0.09870  0.95613  1.0000
  C   C170      1.0  0.12420  0.33659  0.98258  1.0000
  C   C171      1.0  0.66057  0.78353  0.99758  1.0000
  C   C172      1.0  0.21188  0.87665  0.06184  1.0000
  C   C173      1.0  0.87429  0.66080  0.02417  1.0000
  C   C174      1.0  0.78490  0.12175  0.95443  1.0000
  C   C175      1.0  0.23082  0.60968  0.03463  1.0000
  C   C176      1.0  0.62437  0.23563  0.01386  1.0000
  C   C177      1.0  0.21235  0.58784  0.02394  1.0000
  C   C178      1.0  0.62651  0.21553  0.00083  1.0000
  C   C179      1.0  0.19105  0.60520  0.00412  1.0000
  C   C180      1.0  0.58699  0.19347  0.98400  1.0000
  C   C181      1.0  0.26513  0.23823  0.91022  1.0000
  C   C182      1.0  0.75406  0.01835  0.01646  1.0000
  C   C183      1.0  0.73705  0.75828  0.03782  1.0000
  C   C184      1.0  0.24140  0.98075  0.01082  1.0000
  C   C185      1.0  0.28415  0.25095  0.96938  1.0000
  C   C186      1.0  0.74473  0.02825  0.97763  1.0000
  C   C187      1.0  0.71551  0.74610  0.00725  1.0000
  C   C188      1.0  0.25241  0.96908  0.01936  1.0000
  C   C189      1.0  0.27874  0.28760  0.04182  1.0000
  C   C190      1.0  0.71361  0.99031  0.92816  1.0000
  C   C191      1.0  0.71812  0.70936  0.96308  1.0000
  C   C192      1.0  0.28780  0.00448  0.01800  1.0000
  C   C193      1.0  0.77341  0.33670  0.03278  1.0000
  C   C194      1.0  0.66686  0.43531  0.97332  1.0000
  C   C195      1.0  0.56170  0.22852  0.99516  1.0000
  C   C196      1.0  0.22830  0.66096  0.93709  1.0000
  C   C197      1.0  0.33531  0.55875  0.99816  1.0000
  C   C198      1.0  0.43583  0.77528  0.04773  1.0000
  C   C199      1.0  0.79822  0.44730  0.95497  1.0000
  C   C200      1.0  0.54790  0.34510  0.02696  1.0000
  C   C201      1.0  0.65094  0.20570  0.03948  1.0000
  C   C202      1.0  0.20247  0.54889  0.01216  1.0000
  C   C203      1.0  0.45174  0.65169  0.98281  1.0000
  C   C204      1.0  0.35027  0.79955  0.96916  1.0000
  C   C205      1.0  0.28767  0.22042  0.98557  1.0000
  C   C206      1.0  0.77514  0.06509  0.98691  1.0000
  C   C207      1.0  0.93445  0.70984  0.97358  1.0000
  C   C208      1.0  0.70980  0.77795  0.02286  1.0000
  C   C209      1.0  0.22268  0.93175  0.00184  1.0000
  C   C210      1.0  0.06482  0.28758  0.01896  1.0000
  C   C211      1.0  0.25507  0.30664  0.99227  1.0000
  C   C212      1.0  0.69060  0.94600  0.00652  1.0000
  C   C213      1.0  0.05610  0.74849  0.93740  1.0000
  C   C214      1.0  0.74390  0.69044  0.99815  1.0000
  C   C215      1.0  0.30450  0.05420  0.04983  1.0000
  C   C216      1.0  0.94647  0.25451  0.00184  1.0000
  C   C217      1.0  0.21177  0.45679  0.44778  1.0000
  C   C218      1.0  0.54528  0.74902  0.46749  1.0000
  C   C219      1.0  0.24989  0.79107  0.51144  1.0000
  C   C220      1.0  0.79325  0.54209  0.48325  1.0000
  C   C221      1.0  0.45536  0.25364  0.55292  1.0000
  C   C222      1.0  0.75108  0.20747  0.47512  1.0000
  C   C223      1.0  0.21321  0.43841  0.45895  1.0000
  C   C224      1.0  0.56355  0.77048  0.47512  1.0000
  C   C225      1.0  0.22839  0.78926  0.51888  1.0000
  C   C226      1.0  0.79055  0.56173  0.49998  1.0000
  C   C227      1.0  0.43815  0.23182  0.52708  1.0000
  C   C228      1.0  0.77249  0.20978  0.46993  1.0000
  C   C229      1.0  0.24791  0.48263  0.51562  1.0000
  C   C230      1.0  0.52017  0.76736  0.49471  1.0000
  C   C231      1.0  0.23184  0.74997  0.50868  1.0000
  C   C232      1.0  0.75003  0.52121  0.53098  1.0000
  C   C233      1.0  0.48235  0.23443  0.49599  1.0000
  C   C234      1.0  0.76897  0.24810  0.46777  1.0000
  C   C235      1.0  0.21030  0.37249  0.50113  1.0000
  C   C236      1.0  0.62895  0.83959  0.50553  1.0000
  C   C237      1.0  0.16322  0.78967  0.48784  1.0000
  C   C238      1.0  0.79079  0.62929  0.49946  1.0000
  C   C239      1.0  0.37243  0.16316  0.49803  1.0000
  C   C240      1.0  0.83831  0.21075  0.50051  1.0000
  C   C241      1.0  0.20025  0.34981  0.51222  1.0000
  C   C242      1.0  0.65131  0.85424  0.51930  1.0000
  C   C243      1.0  0.15087  0.79964  0.47828  1.0000
  C   C244      1.0  0.80010  0.65248  0.49877  1.0000
  C   C245      1.0  0.34844  0.14973  0.51052  1.0000
  C   C246      1.0  0.85093  0.20156  0.51492  1.0000
  C   C247      1.0  0.22245  0.49859  0.49806  1.0000
  C   C248      1.0  0.27632  0.77583  0.49620  1.0000
  C   C249      1.0  0.49588  0.27939  0.53702  1.0000
  C   C250      1.0  0.19387  0.86226  0.51343  1.0000
  C   C251      1.0  0.86241  0.67112  0.49685  1.0000
  C   C252      1.0  0.33106  0.19209  0.48899  1.0000
  C   C253      1.0  0.24078  0.51931  0.45605  1.0000
  C   C254      1.0  0.28911  0.75880  0.39518  1.0000
  C   C255      1.0  0.51205  0.29107  0.62113  1.0000
  C   C256      1.0  0.23423  0.53761  0.48883  1.0000
  C   C257      1.0  0.31175  0.76393  0.38929  1.0000
  C   C258      1.0  0.52968  0.31258  0.60475  1.0000
  C   C259      1.0  0.20926  0.53548  0.55506  1.0000
  C   C260      1.0  0.32348  0.78694  0.47620  1.0000
  C   C261      1.0  0.53162  0.32396  0.50653  1.0000
  C   C262      1.0  0.19080  0.51458  0.58978  1.0000
  C   C263      1.0  0.31179  0.80451  0.56577  1.0000
  C   C264      1.0  0.51444  0.31342  0.43292  1.0000
  C   C265      1.0  0.19749  0.49658  0.56276  1.0000
  C   C266      1.0  0.28847  0.79887  0.57957  1.0000
  C   C267      1.0  0.49705  0.29164  0.44801  1.0000
  C   C268      1.0  0.65106  0.88611  0.46566  1.0000
  C   C269      1.0  0.12158  0.76190  0.36614  1.0000
  C   C270      1.0  0.76053  0.65249  0.54300  1.0000
  C   C271      1.0  0.88354  0.24015  0.56769  1.0000
  C   C272      1.0  0.66123  0.90861  0.45223  1.0000
  C   C273      1.0  0.09862  0.74945  0.36008  1.0000
  C   C274      1.0  0.74737  0.66259  0.54478  1.0000
  C   C275      1.0  0.90692  0.25281  0.56548  1.0000
  C   C276      1.0  0.68230  0.92418  0.48508  1.0000
  C   C277      1.0  0.08042  0.76077  0.45220  1.0000
  C   C278      1.0  0.75918  0.68354  0.50172  1.0000
  C   C279      1.0  0.92264  0.24125  0.51877  1.0000
  C   C280      1.0  0.69249  0.91696  0.53697  1.0000
  C   C281      1.0  0.08592  0.78502  0.55060  1.0000
  C   C282      1.0  0.78476  0.69360  0.45077  1.0000
  C   C283      1.0  0.91429  0.21656  0.47236  1.0000
  C   C284      1.0  0.68221  0.89464  0.55198  1.0000
  C   C285      1.0  0.10876  0.79737  0.55710  1.0000
  C   C286      1.0  0.79779  0.68325  0.44677  1.0000
  C   C287      1.0  0.89116  0.20403  0.47262  1.0000
  C   C288      1.0  0.37371  0.58523  0.49532  1.0000
  C   C289      1.0  0.21196  0.62556  0.49291  1.0000
  C   C290      1.0  0.62768  0.41630  0.48243  1.0000
  C   C291      1.0  0.37367  0.60480  0.48547  1.0000
  C   C292      1.0  0.23456  0.62644  0.46736  1.0000
  C   C293      1.0  0.63007  0.39585  0.46225  1.0000
  C   C294      1.0  0.41465  0.60737  0.49323  1.0000
  C   C295      1.0  0.19375  0.58668  0.52352  1.0000
  C   C296      1.0  0.58493  0.39513  0.52802  1.0000
  C   C297      1.0  0.26029  0.27774  0.51050  1.0000
  C   C298      1.0  0.74135  0.72498  0.49452  1.0000
  C   C299      1.0  0.27830  0.01739  0.51320  1.0000
  C   C300      1.0  0.25252  0.25297  0.45921  1.0000
  C   C301      1.0  0.75037  0.74958  0.53067  1.0000
  C   C302      1.0  0.25685  0.00338  0.48133  1.0000
  C   C303      1.0  0.29416  0.27818  0.52836  1.0000
  C   C304      1.0  0.70788  0.72436  0.47119  1.0000
  C   C305      1.0  0.27702  0.98436  0.54770  1.0000
  C   C306      1.0  0.20876  0.40546  0.47796  1.0000
  C   C307      1.0  0.59633  0.80190  0.49065  1.0000
  C   C308      1.0  0.19792  0.79291  0.52090  1.0000
  C   C309      1.0  0.79349  0.59598  0.51003  1.0000
  C   C310      1.0  0.40704  0.19973  0.48553  1.0000
  C   C311      1.0  0.80304  0.20723  0.47379  1.0000
  C   C312      1.0  0.19754  0.38159  0.48715  1.0000
  C   C313      1.0  0.62001  0.81620  0.49964  1.0000
  C   C314      1.0  0.18495  0.80346  0.51333  1.0000
  C   C315      1.0  0.80436  0.61974  0.50103  1.0000
  C   C316      1.0  0.38282  0.18571  0.48335  1.0000
  C   C317      1.0  0.81580  0.19704  0.48662  1.0000
  C   C318      1.0  0.17648  0.33681  0.51746  1.0000
  C   C319      1.0  0.66426  0.84501  0.53065  1.0000
  C   C320      1.0  0.16147  0.82323  0.48310  1.0000
  C   C321      1.0  0.82330  0.66614  0.50294  1.0000
  C   C322      1.0  0.33499  0.16003  0.51428  1.0000
  C   C323      1.0  0.83992  0.17835  0.52040  1.0000
  C   C324      1.0  0.23108  0.44167  0.50497  1.0000
  C   C325      1.0  0.56088  0.79066  0.49306  1.0000
  C   C326      1.0  0.20847  0.76831  0.52055  1.0000
  C   C327      1.0  0.76798  0.56186  0.53242  1.0000
  C   C328      1.0  0.44266  0.21108  0.48069  1.0000
  C   C329      1.0  0.79279  0.23050  0.45895  1.0000
  C   C330      1.0  0.24855  0.46368  0.52949  1.0000
  C   C331      1.0  0.53913  0.78879  0.50343  1.0000
  C   C332      1.0  0.21040  0.74898  0.51673  1.0000
  C   C333      1.0  0.74801  0.54160  0.54853  1.0000
  C   C334      1.0  0.46461  0.21244  0.46531  1.0000
  C   C335      1.0  0.79076  0.24918  0.45522  1.0000
  C   C336      1.0  0.22812  0.47949  0.48429  1.0000
  C   C337      1.0  0.52299  0.74705  0.48098  1.0000
  C   C338      1.0  0.25209  0.77160  0.50791  1.0000
  C   C339      1.0  0.77304  0.52157  0.50336  1.0000
  C   C340      1.0  0.47794  0.25531  0.53267  1.0000
  C   C341      1.0  0.74893  0.22641  0.47176  1.0000
  C   C342      1.0  0.16335  0.34541  0.50279  1.0000
  C   C343      1.0  0.65603  0.82133  0.51981  1.0000
  C   C344      1.0  0.18317  0.83750  0.50898  1.0000
  C   C345      1.0  0.83773  0.65686  0.49798  1.0000
  C   C346      1.0  0.34524  0.18215  0.49273  1.0000
  C   C347      1.0  0.81786  0.16402  0.50093  1.0000
  C   C348      1.0  0.17427  0.36794  0.48588  1.0000
  C   C349      1.0  0.63376  0.80720  0.50304  1.0000
  C   C350      1.0  0.19438  0.82742  0.52884  1.0000
  C   C351      1.0  0.82801  0.63336  0.49376  1.0000
  C   C352      1.0  0.36960  0.19465  0.47336  1.0000
  C   C353      1.0  0.80608  0.17355  0.48168  1.0000
  C   C354      1.0  0.72721  0.50091  0.53841  1.0000
  C   C355      1.0  0.66147  0.87857  0.51404  1.0000
  C   C356      1.0  0.12702  0.78605  0.46537  1.0000
  C   C357      1.0  0.78602  0.66266  0.49560  1.0000
  C   C358      1.0  0.87519  0.21547  0.52056  1.0000
  C   C359      1.0  0.71417  0.49748  0.44957  1.0000
  C   C360      1.0  0.69257  0.47929  0.45087  1.0000
  C   C361      1.0  0.68291  0.46338  0.54224  1.0000
  C   C362      1.0  0.69538  0.46695  0.63419  1.0000
  C   C363      1.0  0.71692  0.48538  0.63423  1.0000
  C   C364      1.0  0.18000  0.87403  0.53768  1.0000
  C   C365      1.0  0.87547  0.69215  0.45291  1.0000
  C   C366      1.0  0.31048  0.17778  0.44776  1.0000
  C   C367      1.0  0.18998  0.89738  0.54245  1.0000
  C   C368      1.0  0.89923  0.70473  0.44143  1.0000
  C   C369      1.0  0.29787  0.18739  0.43881  1.0000
  C   C370      1.0  0.21432  0.91019  0.52468  1.0000
  C   C371      1.0  0.91108  0.69698  0.47495  1.0000
  C   C372      1.0  0.30561  0.21161  0.46704  1.0000
  C   C373      1.0  0.22836  0.89848  0.49917  1.0000
  C   C374      1.0  0.89799  0.67624  0.52280  1.0000
  C   C375      1.0  0.32577  0.22607  0.51284  1.0000
  C   C376      1.0  0.21840  0.87516  0.49289  1.0000
  C   C377      1.0  0.87424  0.66377  0.53460  1.0000
  C   C378      1.0  0.33792  0.21651  0.52559  1.0000
  C   C379      1.0  0.39354  0.62499  0.47970  1.0000
  C   C380      1.0  0.23641  0.60807  0.47475  1.0000
  C   C381      1.0  0.61011  0.37577  0.47937  1.0000
  C   C382      1.0  0.41438  0.62693  0.48481  1.0000
  C   C383      1.0  0.21598  0.58811  0.50745  1.0000
  C   C384      1.0  0.58727  0.37485  0.51043  1.0000
  C   C385      1.0  0.39488  0.58678  0.49506  1.0000
  C   C386      1.0  0.19182  0.60502  0.51501  1.0000
  C   C387      1.0  0.60482  0.41538  0.51302  1.0000
  C   C388      1.0  0.26543  0.24096  0.43920  1.0000
  C   C389      1.0  0.73827  0.76132  0.53892  1.0000
  C   C390      1.0  0.24578  0.98023  0.48130  1.0000
  C   C391      1.0  0.28649  0.25342  0.47567  1.0000
  C   C392      1.0  0.71680  0.74895  0.50746  1.0000
  C   C393      1.0  0.25562  0.97033  0.51599  1.0000
  C   C394      1.0  0.28142  0.29026  0.54593  1.0000
  C   C395      1.0  0.71986  0.71255  0.46368  1.0000
  C   C396      1.0  0.28804  0.00750  0.54855  1.0000
  C   C397      1.0  0.77372  0.33574  0.49385  1.0000
  C   C398      1.0  0.66075  0.44326  0.54874  1.0000
  C   C399      1.0  0.56325  0.22687  0.48409  1.0000
  C   C400      1.0  0.22326  0.66458  0.53439  1.0000
  C   C401      1.0  0.33263  0.56435  0.55216  1.0000
  C   C402      1.0  0.43733  0.77501  0.53739  1.0000
  C   C403      1.0  0.79256  0.45173  0.53270  1.0000
  C   C404      1.0  0.55149  0.34570  0.47767  1.0000
  C   C405      1.0  0.65353  0.20386  0.51337  1.0000
  C   C406      1.0  0.20295  0.55418  0.57602  1.0000
  C   C407      1.0  0.44814  0.65771  0.54671  1.0000
  C   C408      1.0  0.34603  0.79258  0.48671  1.0000
  C   C409      1.0  0.29246  0.22151  0.45583  1.0000
  C   C410      1.0  0.77782  0.06650  0.45304  1.0000
  C   C411      1.0  0.93612  0.71040  0.46098  1.0000
  C   C412      1.0  0.71228  0.78000  0.50341  1.0000
  C   C413      1.0  0.22405  0.93469  0.53294  1.0000
  C   C414      1.0  0.06764  0.28816  0.49564  1.0000
  C   C415      1.0  0.25572  0.30737  0.49283  1.0000
  C   C416      1.0  0.69325  0.94730  0.46244  1.0000
  C   C417      1.0  0.05651  0.74744  0.44454  1.0000
  C   C418      1.0  0.74504  0.69472  0.51312  1.0000
  C   C419      1.0  0.30889  0.05396  0.51383  1.0000
  C   C420      1.0  0.94660  0.25467  0.52396  1.0000
  N   N1        1.0  0.22951  0.41648  0.95520  1.0000
  N   N2        1.0  0.58353  0.80276  0.93161  1.0000
  N   N3        1.0  0.19187  0.76974  0.99998  1.0000
  N   N4        1.0  0.77359  0.57733  0.96497  1.0000
  N   N5        1.0  0.41645  0.19262  0.02970  1.0000
  N   N6        1.0  0.80746  0.22719  0.99072  1.0000
  N   N7        1.0  0.19315  0.41569  0.00409  1.0000
  N   N8        1.0  0.58044  0.77680  0.02622  1.0000
  N   N9        1.0  0.21912  0.80582  0.04738  1.0000
  N   N10       1.0  0.80236  0.58395  0.04405  1.0000
  N   N11       1.0  0.41778  0.22010  0.95827  1.0000
  N   N12       1.0  0.77897  0.19173  0.95347  1.0000
  N   N13       1.0  0.79363  0.35362  0.99233  1.0000
  N   N14       1.0  0.64521  0.43575  0.02414  1.0000
  N   N15       1.0  0.56436  0.21027  0.97986  1.0000
  N   N16       1.0  0.20811  0.64643  0.01633  1.0000
  N   N17       1.0  0.35413  0.56084  0.00935  1.0000
  N   N18       1.0  0.43642  0.79231  0.02290  1.0000
  N   N19       1.0  0.78154  0.43043  0.02201  1.0000
  N   N20       1.0  0.57096  0.34853  0.97226  1.0000
  N   N21       1.0  0.64868  0.21839  0.98955  1.0000
  N   N22       1.0  0.21593  0.57067  0.03641  1.0000
  N   N23       1.0  0.42896  0.64755  0.02462  1.0000
  N   N24       1.0  0.35363  0.78631  0.00655  1.0000
  N   N25       1.0  0.29748  0.24090  0.96681  1.0000
  N   N26       1.0  0.75427  0.05151  0.97700  1.0000
  N   N27       1.0  0.94589  0.70433  0.01177  1.0000
  N   N28       1.0  0.70204  0.75600  0.00876  1.0000
  N   N29       1.0  0.24238  0.94617  0.02758  1.0000
  N   N30       1.0  0.05484  0.29371  0.97310  1.0000
  N   N31       1.0  0.24602  0.28514  0.99116  1.0000
  N   N32       1.0  0.71388  0.95723  0.96224  1.0000
  N   N33       1.0  0.03864  0.75824  0.02731  1.0000
  N   N34       1.0  0.75313  0.71154  0.99027  1.0000
  N   N35       1.0  0.28736  0.03863  0.99510  1.0000
  N   N36       1.0  0.95827  0.24670  0.01891  1.0000
  N   N37       1.0  0.22790  0.42104  0.51629  1.0000
  N   N38       1.0  0.58144  0.80987  0.50100  1.0000
  N   N39       1.0  0.18973  0.77099  0.52252  1.0000
  N   N40       1.0  0.77024  0.58318  0.53742  1.0000
  N   N41       1.0  0.42293  0.19164  0.45774  1.0000
  N   N42       1.0  0.81159  0.22847  0.46067  1.0000
  N   N43       1.0  0.19913  0.41509  0.44184  1.0000
  N   N44       1.0  0.58665  0.77795  0.46975  1.0000
  N   N45       1.0  0.22105  0.80449  0.52047  1.0000
  N   N46       1.0  0.80678  0.58369  0.48470  1.0000
  N   N47       1.0  0.41510  0.22426  0.52997  1.0000
  N   N48       1.0  0.77960  0.19500  0.47688  1.0000
  N   N49       1.0  0.78837  0.35640  0.53900  1.0000
  N   N50       1.0  0.64722  0.43726  0.47059  1.0000
  N   N51       1.0  0.56402  0.20928  0.49257  1.0000
  N   N52       1.0  0.20929  0.64360  0.48501  1.0000
  N   N53       1.0  0.35459  0.56382  0.49045  1.0000
  N   N54       1.0  0.43871  0.78872  0.47517  1.0000
  N   N55       1.0  0.77742  0.43068  0.52623  1.0000
  N   N56       1.0  0.56808  0.35406  0.53398  1.0000
  N   N57       1.0  0.64678  0.22033  0.54206  1.0000
  N   N58       1.0  0.22037  0.57064  0.50764  1.0000
  N   N59       1.0  0.43357  0.64778  0.46850  1.0000
  N   N60       1.0  0.35490  0.77612  0.43426  1.0000
  N   N61       1.0  0.30016  0.24351  0.47224  1.0000
  N   N62       1.0  0.75471  0.05528  0.49343  1.0000
  N   N63       1.0  0.94615  0.70542  0.51468  1.0000
  N   N64       1.0  0.70330  0.75889  0.51004  1.0000
  N   N65       1.0  0.24629  0.94717  0.51657  1.0000
  N   N66       1.0  0.05343  0.29678  0.51141  1.0000
  N   N67       1.0  0.24571  0.28799  0.52873  1.0000
  N   N68       1.0  0.71318  0.96154  0.48533  1.0000
  N   N69       1.0  0.04005  0.75755  0.51463  1.0000
  N   N70       1.0  0.75509  0.71473  0.48619  1.0000
  N   N71       1.0  0.28800  0.04028  0.50621  1.0000
  N   N72       1.0  0.96075  0.24447  0.49063  1.0000
  C  Sn1       1.0  0.94603  0.75584  0.96010  1.0000
  C   C421      1.0  0.95940  0.77916  0.96284  1.0000
  C  Sn2       1.0  0.00536  0.75337  0.00529  1.0000
  C  Sn3       1.0  0.97991  0.74509  0.04596  1.0000
  C   C422      1.0  0.96655  0.72178  0.04323  1.0000
  C  Sn4       1.0  0.97808  0.70657  0.00077  1.0000
  O  Te1       1.0  0.95795  0.74096  0.91731  1.0000
  O  Te2       1.0  0.01912  0.77661  0.00710  1.0000
  O  Te3       1.0  0.96800  0.75999  0.08876  1.0000
  O  Te4       1.0  0.90684  0.72434  0.99897  1.0000
  Mg  Mg1       1.0  0.99460  0.79013  0.07358  1.0000
  Mg  Mg2       1.0  0.93133  0.71080  0.93261  1.0000
  C  Sn5       1.0  0.39615  0.76584  0.92641  1.0000
  C   C423      1.0  0.41592  0.78522  0.95493  1.0000
  C  Sn6       1.0  0.47210  0.76710  0.02621  1.0000
  C  Sn7       1.0  0.45055  0.77068  0.07002  1.0000
  C   C424      1.0  0.43080  0.75131  0.04154  1.0000
  C  Sn8       1.0  0.37461  0.76942  0.97022  1.0000
  O  Te5       1.0  0.39788  0.74313  0.85502  1.0000
  O  Te6       1.0  0.49210  0.78620  0.05345  1.0000
  O  Te7       1.0  0.44884  0.79342  0.14146  1.0000
  O  Te8       1.0  0.35462  0.75033  0.94301  1.0000
  Mg  Mg3       1.0  0.48093  0.81376  0.15406  1.0000
  Mg  Mg4       1.0  0.36576  0.72277  0.84251  1.0000
  C  Sn9       1.0  0.52846  0.28304  0.91805  1.0000
  C   C425      1.0  0.56012  0.23527  0.00292  1.0000
  C  Sn10      1.0  0.54740  0.25127  0.07952  1.0000
  C  Sn11      1.0  0.56078  0.27453  0.07103  1.0000
  C   C426      1.0  0.52910  0.32229  0.98618  1.0000
  C  Sn12      1.0  0.54184  0.30630  0.90956  1.0000
  O  Te9       1.0  0.54080  0.26675  0.84238  1.0000
  O  Te10      1.0  0.52156  0.24409  0.16370  1.0000
  O  Te11      1.0  0.54841  0.29082  0.14680  1.0000
  O  Te12      1.0  0.56766  0.31347  0.82540  1.0000
  Mg  Mg5       1.0  0.51312  0.27268  0.24675  1.0000
  Mg  Mg6       1.0  0.57612  0.28489  0.74223  1.0000
  C  Sn13      1.0  0.75863  0.39501  0.66024  1.0000
  C   C427      1.0  0.77769  0.41357  0.59451  1.0000
  C  Sn14      1.0  0.80199  0.41237  0.48550  1.0000
  C  Sn15      1.0  0.80736  0.39219  0.44114  1.0000
  C   C428      1.0  0.78831  0.37364  0.50683  1.0000
  C  Sn16      1.0  0.76400  0.37482  0.61589  1.0000
  O  Te13      1.0  0.73447  0.39658  0.76899  1.0000
  O  Te14      1.0  0.82074  0.43115  0.42144  1.0000
  O  Te15      1.0  0.83155  0.39062  0.33230  1.0000
  O  Te16      1.0  0.74526  0.35605  0.67989  1.0000
  Mg  Mg7       1.0  0.85072  0.42073  0.27779  1.0000
  Mg  Mg8       1.0  0.71527  0.36645  0.82346  1.0000
  C  Sn17      1.0  0.00711  0.27851  0.38921  1.0000
  C   C429      1.0  0.99010  0.25799  0.43419  1.0000
  C  Sn18      1.0  0.99181  0.25045  0.53785  1.0000
  C  Sn19      1.0  0.01090  0.26370  0.59791  1.0000
  C   C430      1.0  0.02789  0.28421  0.55295  1.0000
  C  Sn20      1.0  0.02620  0.29176  0.44927  1.0000
  O  Te17      1.0  0.00505  0.28572  0.28545  1.0000
  O  Te18      1.0  0.97459  0.22987  0.58106  1.0000
  O  Te19      1.0  0.01295  0.25648  0.70174  1.0000
  O  Te20      1.0  0.04340  0.31233  0.40609  1.0000
  Mg  Mg9       1.0  0.98509  0.22726  0.72568  1.0000
  Mg  Mg10      1.0  0.03291  0.31496  0.26157  1.0000
  C  Sn21      1.0  0.50428  0.70346  0.53876  1.0000
  C   C431      1.0  0.50793  0.71777  0.45673  1.0000
  C  Sn22      1.0  0.48979  0.71386  0.41307  1.0000
  C  Sn23      1.0  0.46754  0.69527  0.45233  1.0000
  C   C432      1.0  0.46389  0.68097  0.53434  1.0000
  C  Sn24      1.0  0.48202  0.68486  0.57802  1.0000
  O  Te21      1.0  0.52266  0.70769  0.58123  1.0000
  O  Te22      1.0  0.49387  0.72840  0.33105  1.0000
  O  Te23      1.0  0.44915  0.69104  0.40978  1.0000
  O  Te24      1.0  0.47795  0.67034  0.66002  1.0000
  Mg  Mg11      1.0  0.46330  0.71563  0.29919  1.0000
  Mg  Mg12      1.0  0.50850  0.68310  0.69202  1.0000
  C  Sn25      1.0  0.21168  0.30623  0.52655  1.0000
  C   C433      1.0  0.23718  0.31291  0.46778  1.0000
  C  Sn26      1.0  0.25202  0.33505  0.44593  1.0000
  C  Sn27      1.0  0.24114  0.35085  0.48371  1.0000
  C   C434      1.0  0.21566  0.34417  0.54247  1.0000
  C  Sn28      1.0  0.20080  0.32203  0.56433  1.0000
  O  Te25      1.0  0.19721  0.28401  0.54747  1.0000
  O  Te26      1.0  0.27747  0.34132  0.38695  1.0000
  O  Te27      1.0  0.25564  0.37308  0.46274  1.0000
  O  Te28      1.0  0.17537  0.31575  0.62330  1.0000
  Mg  Mg13      1.0  0.28942  0.37353  0.37917  1.0000
  Mg  Mg14      1.0  0.16340  0.28356  0.63122  1.0000
  C  Sn29      1.0  0.69702  0.90189  0.88966  1.0000
  C   C435      1.0  0.68454  0.91670  0.93880  1.0000
  C  Sn30      1.0  0.71627  0.86976  0.03158  1.0000
  C  Sn31      1.0  0.70267  0.84857  0.07630  1.0000
  C   C436      1.0  0.71514  0.83378  0.02720  1.0000
  C  Sn32      1.0  0.68342  0.88071  0.93438  1.0000
  O  Te29      1.0  0.72280  0.90820  0.79697  1.0000
  O  Te30      1.0  0.70421  0.88483  0.07922  1.0000
  O  Te31      1.0  0.67687  0.84228  0.16907  1.0000
  O  Te32      1.0  0.69548  0.86565  0.88678  1.0000
  Mg  Mg15      1.0  0.66886  0.86858  0.20462  1.0000
  Mg  Mg16      1.0  0.73082  0.88189  0.76147  1.0000
  C  Sn33      1.0  0.69650  0.23737  0.56102  1.0000
  C   C437      1.0  0.68246  0.21549  0.48533  1.0000
  C  Sn34      1.0  0.68824  0.19499  0.42118  1.0000
  C  Sn35      1.0  0.70847  0.19640  0.43302  1.0000
  C   C438      1.0  0.72250  0.21827  0.50870  1.0000
  C  Sn36      1.0  0.71673  0.23877  0.57287  1.0000
  O  Te33      1.0  0.69039  0.25762  0.62431  1.0000
  O  Te34      1.0  0.67394  0.17332  0.34600  1.0000
  O  Te35      1.0  0.71458  0.17612  0.36964  1.0000
  O  Te36      1.0  0.73102  0.26043  0.64803  1.0000
  Mg  Mg17      1.0  0.68957  0.15070  0.27858  1.0000
  Mg  Mg18      1.0  0.71540  0.28306  0.71557  1.0000
  C  Sn37      1.0  0.11059  0.29489  0.50900  1.0000
  C   C439      1.0  0.09192  0.30217  0.55012  1.0000
  C  Sn38      1.0  0.09719  0.32455  0.55201  1.0000
  C  Sn39      1.0  0.12164  0.33997  0.51185  1.0000
  C   C440      1.0  0.14030  0.33268  0.47074  1.0000
  C  Sn40      1.0  0.13504  0.31030  0.46884  1.0000
  O  Te37      1.0  0.10490  0.27244  0.50789  1.0000
  O  Te38      1.0  0.07821  0.33144  0.59357  1.0000
  O  Te39      1.0  0.12732  0.36244  0.51299  1.0000
  O  Te40      1.0  0.15401  0.30341  0.42728  1.0000
  Mg  Mg19      1.0  0.09516  0.36375  0.57763  1.0000
  Mg  Mg20      1.0  0.13708  0.27110  0.44309  1.0000
  C  Sn41      1.0  0.44180  0.57893  0.02325  1.0000
  C   C441      1.0  0.46160  0.58534  0.05912  1.0000
  C  Sn42      1.0  0.46805  0.56821  0.04658  1.0000
  C  Sn43      1.0  0.39692  0.58514  0.99705  1.0000
  C   C442      1.0  0.37714  0.57874  0.96118  1.0000
  C  Sn44      1.0  0.37067  0.59587  0.97372  1.0000
  O  Te41      1.0  0.43568  0.59636  0.03660  1.0000
  O  Te42      1.0  0.48791  0.57505  0.08314  1.0000
  O  Te43      1.0  0.40306  0.56771  0.98372  1.0000
  O  Te44      1.0  0.35082  0.58903  0.93715  1.0000
  Mg  Mg21      1.0  0.48912  0.54481  0.04663  1.0000
  Mg  Mg22      1.0  0.34960  0.61925  0.97353  1.0000
  C  Sn45      1.0  0.48862  0.78086  0.37686  1.0000
  C   C443      1.0  0.46328  0.77132  0.47273  1.0000
  C  Sn46      1.0  0.45470  0.76139  0.60339  1.0000
  C  Sn47      1.0  0.47180  0.76099  0.63908  1.0000
  C   C444      1.0  0.49713  0.77053  0.54326  1.0000
  C  Sn48      1.0  0.50573  0.78047  0.41254  1.0000
  O  Te45      1.0  0.49679  0.79071  0.24684  1.0000
  O  Te46      1.0  0.42927  0.75195  0.69745  1.0000
  O  Te47      1.0  0.46362  0.75114  0.76922  1.0000
  O  Te48      1.0  0.53114  0.78991  0.31854  1.0000
  Mg  Mg23      1.0  0.42721  0.74051  0.86177  1.0000
  Mg  Mg24      1.0  0.53322  0.80136  0.15427  1.0000
  C  Sn49      1.0  0.95864  0.20962  0.03871  1.0000
  C   C445      1.0  0.97363  0.20376  0.05603  1.0000
  C  Sn50      1.0  0.96937  0.18038  0.02764  1.0000
  C  Sn51      1.0  0.89223  0.20346  0.98085  1.0000
  C   C446      1.0  0.87725  0.20933  0.96352  1.0000
  C  Sn52      1.0  0.88149  0.23271  0.99192  1.0000
  O  Te49      1.0  0.96323  0.23312  0.06771  1.0000
  O  Te50      1.0  0.98461  0.17495  0.04580  1.0000
  O  Te51      1.0  0.88764  0.17996  0.95186  1.0000
  O  Te52      1.0  0.86628  0.23814  0.97375  1.0000
  Mg  Mg25      1.0  0.91347  0.18137  0.99253  1.0000
  Mg  Mg26      1.0  0.93740  0.23171  0.02690  1.0000
  C  Sn53      1.0  0.71700  0.99807  0.40487  1.0000
  C   C447      1.0  0.72489  0.98461  0.42159  1.0000
  C  Sn54      1.0  0.74271  0.99549  0.48846  1.0000
  C  Sn55      1.0  0.75285  0.02034  0.53980  1.0000
  C   C448      1.0  0.24190  0.03378  0.52310  1.0000
  C  Sn56      1.0  0.22408  0.02292  0.45621  1.0000
  O  Te53      1.0  0.69917  0.98682  0.33770  1.0000
  O  Te54      1.0  0.75031  0.98167  0.50388  1.0000
  O  Te55      1.0  0.26764  0.03159  0.60700  1.0000
  O  Te56      1.0  0.21648  0.03672  0.44080  1.0000
  Mg  Mg27      1.0  0.77507  0.00517  0.60285  1.0000
  Mg  Mg28      1.0  0.69477  0.01325  0.34195  1.0000
  C  Sn57      1.0  0.30356  0.17558  0.94107  1.0000
  C   C449      1.0  0.32739  0.18581  0.93179  1.0000
  C  Sn58      1.0  0.33854  0.21004  0.96470  1.0000
  C  Sn59      1.0  0.38309  0.18337  0.00790  1.0000
  C   C450      1.0  0.35927  0.17314  0.01719  1.0000
  C  Sn60      1.0  0.29061  0.18990  0.98427  1.0000
  O  Te57      1.0  0.29278  0.15131  0.90768  1.0000
  O  Te58      1.0  0.36238  0.21986  0.95457  1.0000
  O  Te59      1.0  0.39389  0.20766  0.04130  1.0000
  O  Te60      1.0  0.26678  0.18008  0.99442  1.0000
  Mg  Mg29      1.0  0.42672  0.21280  0.01136  1.0000
  Mg  Mg30      1.0  0.25993  0.14616  0.93775  1.0000
  C  Sn61      1.0  0.05436  0.20936  0.04968  1.0000
  C   C451      1.0  0.04018  0.21897  0.05635  1.0000
  C  Sn62      1.0  0.05136  0.23905  0.00480  1.0000
  C  Sn63      1.0  0.01976  0.29072  0.94524  1.0000
  C   C452      1.0  0.03392  0.28111  0.93857  1.0000
  C  Sn64      1.0  0.02276  0.26103  0.99012  1.0000
  O  Te61      1.0  0.04280  0.18928  0.10185  1.0000
  O  Te62      1.0  0.03680  0.24834  0.01268  1.0000
  O  Te63      1.0  0.03132  0.31081  0.89307  1.0000
  O  Te64      1.0  0.03731  0.25174  0.98224  1.0000
  Mg  Mg31      1.0  0.00360  0.31689  0.92741  1.0000
  Mg  Mg32      1.0  0.07053  0.18318  0.06738  1.0000
  C  Sn65      1.0  0.70161  0.82032  0.45020  1.0000
  C   C453      1.0  0.67746  0.81057  0.46621  1.0000
  C  Sn66      1.0  0.66170  0.79078  0.52423  1.0000
  C  Sn67      1.0  0.67025  0.78053  0.56728  1.0000
  C   C454      1.0  0.69439  0.79028  0.55131  1.0000
  C  Sn68      1.0  0.71017  0.81006  0.49325  1.0000
  O  Te65      1.0  0.71705  0.84010  0.39194  1.0000
  O  Te66      1.0  0.63763  0.78135  0.53912  1.0000
  O  Te67      1.0  0.65480  0.76073  0.62557  1.0000
  O  Te68      1.0  0.73422  0.81950  0.47840  1.0000
  Mg  Mg33      1.0  0.62359  0.75430  0.62434  1.0000
  Mg  Mg34      1.0  0.74828  0.84655  0.39328  1.0000
  C  Sn69      1.0  0.00237  0.71469  0.48335  1.0000
  C   C455      1.0  0.01734  0.73704  0.46624  1.0000
  C  Sn70      1.0  0.00760  0.75216  0.48598  1.0000
  C  Sn71      1.0  0.98237  0.74479  0.52372  1.0000
  C   C456      1.0  0.96742  0.72245  0.54084  1.0000
  C  Sn72      1.0  0.97714  0.70732  0.52109  1.0000
  O  Te69      1.0  0.01250  0.69987  0.46310  1.0000
  O  Te70      1.0  0.02293  0.77442  0.46822  1.0000
  O  Te71      1.0  0.97225  0.75963  0.54397  1.0000
  O  Te72      1.0  0.96183  0.68507  0.53887  1.0000
  Mg  Mg35      1.0  0.00056  0.78827  0.50762  1.0000
  Mg  Mg36      1.0  0.98417  0.67121  0.49959  1.0000
  C  Sn73      1.0  0.19167  0.50235  0.99618  1.0000
  C   C457      1.0  0.25643  0.48586  0.07294  1.0000
  C  Sn74      1.0  0.27699  0.49724  0.11165  1.0000
  C  Sn75      1.0  0.29060  0.48386  0.07274  1.0000
  C   C458      1.0  0.22585  0.50037  0.99600  1.0000
  C  Sn76      1.0  0.20528  0.48897  0.95726  1.0000
  O  Te73      1.0  0.17105  0.49135  0.95860  1.0000
  O  Te74      1.0  0.28388  0.52174  0.18844  1.0000
  O  Te75      1.0  0.31124  0.49489  0.11039  1.0000
  O  Te76      1.0  0.19840  0.46449  0.88049  1.0000
  Mg  Mg37      1.0  0.31333  0.52865  0.21485  1.0000
  Mg  Mg38      1.0  0.16896  0.45756  0.85394  1.0000
  C  Sn77      1.0  0.35034  0.10919  0.01326  1.0000
  C   C459      1.0  0.28570  0.16029  0.96108  1.0000
  C  Sn78      1.0  0.26286  0.14981  0.95369  1.0000
  C  Sn79      1.0  0.24681  0.12880  0.99952  1.0000
  C   C460      1.0  0.31144  0.07772  0.05169  1.0000
  C  Sn80      1.0  0.33428  0.08818  0.05909  1.0000
  O  Te77      1.0  0.37326  0.11997  0.01971  1.0000
  O  Te78      1.0  0.25614  0.16024  0.90106  1.0000
  O  Te79      1.0  0.22387  0.11802  0.99302  1.0000
  O  Te80      1.0  0.34100  0.07777  0.11171  1.0000
  Mg  Mg39      1.0  0.22302  0.13892  0.91330  1.0000
  Mg  Mg40      1.0  0.37412  0.09907  0.09961  1.0000
  C  Sn81      1.0  0.77499  0.46347  0.38593  1.0000
  C   C461      1.0  0.79012  0.46736  0.45727  1.0000
  C  Sn82      1.0  0.79882  0.48989  0.56501  1.0000
  C  Sn83      1.0  0.79224  0.50892  0.60233  1.0000
  C   C462      1.0  0.77712  0.50501  0.53103  1.0000
  C  Sn84      1.0  0.76842  0.48249  0.42325  1.0000
  O  Te81      1.0  0.76651  0.44080  0.27857  1.0000
  O  Te82      1.0  0.81393  0.49335  0.63476  1.0000
  O  Te83      1.0  0.80074  0.53159  0.70978  1.0000
  O  Te84      1.0  0.75332  0.47902  0.35354  1.0000
  Mg  Mg41      1.0  0.82084  0.52745  0.77381  1.0000
  Mg  Mg42      1.0  0.74639  0.44494  0.21457  1.0000
  C  Sn85      1.0  0.20857  0.70210  0.48154  1.0000
  C   C463      1.0  0.22431  0.72450  0.53081  1.0000
  C  Sn86      1.0  0.24310  0.72738  0.56304  1.0000
  C  Sn87      1.0  0.24624  0.70744  0.54556  1.0000
  C   C464      1.0  0.23051  0.68505  0.49629  1.0000
  C  Sn88      1.0  0.21171  0.68215  0.46406  1.0000
  O  Te85      1.0  0.18992  0.69963  0.44996  1.0000
  O  Te86      1.0  0.25859  0.74996  0.61220  1.0000
  O  Te87      1.0  0.26491  0.70992  0.57720  1.0000
  O  Te88      1.0  0.19623  0.65959  0.41490  1.0000
  Mg  Mg43      1.0  0.28133  0.74427  0.64086  1.0000
  Mg  Mg44      1.0  0.17350  0.66525  0.38612  1.0000
  C  Sn89      1.0  0.60574  0.38105  0.09960  1.0000
  C   C465      1.0  0.58779  0.37418  0.04318  1.0000
  C  Sn90      1.0  0.53249  0.42807  0.95664  1.0000
  C  Sn91      1.0  0.55308  0.44825  0.92572  1.0000
  C   C466      1.0  0.57102  0.45510  0.98209  1.0000
  C  Sn92      1.0  0.62633  0.40123  0.06869  1.0000
  O  Te89      1.0  0.60316  0.36789  0.18586  1.0000
  O  Te90      1.0  0.51431  0.42086  0.90152  1.0000
  O  Te91      1.0  0.55565  0.46141  0.83939  1.0000
  O  Te92      1.0  0.64451  0.40842  0.12376  1.0000
  Mg  Mg45      1.0  0.52605  0.44455  0.78939  1.0000
  Mg  Mg46      1.0  0.63279  0.38475  0.23581  1.0000
  C  Sn93      1.0  0.18652  0.38956  0.95798  1.0000
  C   C467      1.0  0.16270  0.37944  0.96706  1.0000
  C  Sn94      1.0  0.20504  0.31755  0.00994  1.0000
  C  Sn95      1.0  0.21386  0.30654  0.04460  1.0000
  C   C468      1.0  0.23766  0.31666  0.03555  1.0000
  C  Sn96      1.0  0.19533  0.37856  0.99264  1.0000
  O  Te93      1.0  0.20136  0.41047  0.91487  1.0000
  O  Te94      1.0  0.18130  0.30775  0.01815  1.0000
  O  Te95      1.0  0.19900  0.28562  0.08773  1.0000
  O  Te96      1.0  0.21905  0.38835  0.98446  1.0000
  Mg  Mg47      1.0  0.16805  0.27910  0.08242  1.0000
  Mg  Mg48      1.0  0.23232  0.41701  0.92029  1.0000
  C  Sn97      1.0  0.20668  0.69388  0.02051  1.0000
  C   C469      1.0  0.16786  0.72432  0.92659  1.0000
  C  Sn98      1.0  0.19253  0.73802  0.88268  1.0000
  C  Sn99      1.0  0.19867  0.76279  0.93381  1.0000
  C   C470      1.0  0.23750  0.73234  0.02769  1.0000
  C  Sn100     1.0  0.21282  0.71865  0.07163  1.0000
  O  Te97      1.0  0.18214  0.67983  0.06299  1.0000
  O  Te98      1.0  0.21089  0.72708  0.78867  1.0000
  O  Te99      1.0  0.22323  0.77683  0.89123  1.0000
  O  Te100     1.0  0.19447  0.72958  0.16561  1.0000
  Mg  Mg49      1.0  0.24163  0.75374  0.76185  1.0000
  Mg  Mg50      1.0  0.16372  0.70294  0.19259  1.0000
  C  Sn101     1.0  0.51482  0.20686  0.48780  1.0000
  C   C471      1.0  0.53978  0.21990  0.43006  1.0000
  C  Sn102     1.0  0.54732  0.24201  0.41733  1.0000
  C  Sn103     1.0  0.52953  0.25130  0.46338  1.0000
  C   C472      1.0  0.50458  0.23827  0.52111  1.0000
  C  Sn104     1.0  0.49703  0.21615  0.53385  1.0000
  O  Te101     1.0  0.50770  0.18479  0.49952  1.0000
  O  Te102     1.0  0.57239  0.25471  0.35920  1.0000
  O  Te103     1.0  0.53667  0.27339  0.45161  1.0000
  O  Te104     1.0  0.47198  0.20345  0.59196  1.0000
  Mg  Mg51      1.0  0.57296  0.28398  0.36549  1.0000
  Mg  Mg52      1.0  0.47138  0.17419  0.58582  1.0000
  C  Sn105     1.0  0.30783  0.10823  0.57053  1.0000
  C   C473      1.0  0.33064  0.12440  0.56749  1.0000
  C  Sn106     1.0  0.34945  0.11684  0.52082  1.0000
  C  Sn107     1.0  0.34538  0.09261  0.47614  1.0000
  C   C474      1.0  0.32258  0.07645  0.47916  1.0000
  C  Sn108     1.0  0.30376  0.08400  0.52585  1.0000
  O  Te105     1.0  0.28929  0.11618  0.61758  1.0000
  O  Te106     1.0  0.37210  0.13334  0.51879  1.0000
  O  Te107     1.0  0.36394  0.08466  0.42907  1.0000
  O  Te108     1.0  0.28112  0.06752  0.52786  1.0000
  Mg  Mg53      1.0  0.39162  0.11389  0.44572  1.0000
  Mg  Mg54      1.0  0.26160  0.08695  0.60081  1.0000
  C  Sn109     1.0  0.70271  0.22253  0.86768  1.0000
  C   C475      1.0  0.68025  0.20811  0.96070  1.0000
  C  Sn110     1.0  0.73604  0.15868  0.07556  1.0000
  C  Sn111     1.0  0.75722  0.16479  0.09802  1.0000
  C   C476      1.0  0.77967  0.17919  0.00506  1.0000
  C  Sn112     1.0  0.72390  0.22863  0.89013  1.0000
  O  Te109     1.0  0.70400  0.23077  0.75356  1.0000
  O  Te110     1.0  0.71338  0.14430  0.16707  1.0000
  O  Te111     1.0  0.75592  0.15653  0.21225  1.0000
  O  Te112     1.0  0.74654  0.24301  0.79868  1.0000
  Mg  Mg55      1.0  0.72093  0.13746  0.30753  1.0000
  Mg  Mg56      1.0  0.73900  0.24987  0.65827  1.0000
  C  Sn113     1.0  0.61580  0.22763  0.39792  1.0000
  C   C477      1.0  0.59263  0.21075  0.43276  1.0000
  C  Sn114     1.0  0.58448  0.19687  0.53516  1.0000
  C  Sn115     1.0  0.59979  0.19994  0.60430  1.0000
  C   C478      1.0  0.62294  0.21681  0.56949  1.0000
  C  Sn116     1.0  0.63111  0.23070  0.46706  1.0000
  O  Te113     1.0  0.62357  0.24132  0.29523  1.0000
  O  Te114     1.0  0.56125  0.18010  0.56814  1.0000
  O  Te115     1.0  0.59200  0.18624  0.70706  1.0000
  O  Te116     1.0  0.65433  0.24746  0.43410  1.0000
  Mg  Mg57      1.0  0.55886  0.16573  0.71541  1.0000
  Mg  Mg58      1.0  0.65673  0.26185  0.28694  1.0000
  C  Sn117     1.0  0.77314  0.10785  0.49900  1.0000
  C   C479      1.0  0.78572  0.09236  0.43635  1.0000
  C  Sn118     1.0  0.80991  0.10097  0.41728  1.0000
  C  Sn119     1.0  0.82177  0.12558  0.46187  1.0000
  C   C480      1.0  0.80919  0.14105  0.52450  1.0000
  C  Sn120     1.0  0.78500  0.13245  0.54358  1.0000
  O  Te117     1.0  0.74896  0.09885  0.51702  1.0000
  O  Te118     1.0  0.82211  0.08515  0.35434  1.0000
  O  Te119     1.0  0.84597  0.13457  0.44379  1.0000
  O  Te120     1.0  0.77280  0.14826  0.60651  1.0000
  Mg  Mg59      1.0  0.85488  0.10595  0.35277  1.0000
  Mg  Mg60      1.0  0.74003  0.12748  0.60822  1.0000
  C  Sn121     1.0  0.75048  0.28760  0.45871  1.0000
  C   C481      1.0  0.76317  0.31030  0.53740  1.0000
  C  Sn122     1.0  0.78162  0.31369  0.57568  1.0000
  C  Sn123     1.0  0.78751  0.29400  0.53433  1.0000
  C   C482      1.0  0.77482  0.27132  0.45566  1.0000
  C  Sn124     1.0  0.75637  0.26791  0.41736  1.0000
  O  Te121     1.0  0.73211  0.28462  0.42161  1.0000
  O  Te122     1.0  0.79404  0.33655  0.65443  1.0000
  O  Te123     1.0  0.80589  0.29699  0.57151  1.0000
  O  Te124     1.0  0.74395  0.24507  0.33863  1.0000
  Mg  Mg61      1.0  0.81762  0.33157  0.67925  1.0000
  Mg  Mg62      1.0  0.72038  0.25003  0.31366  1.0000
  C  Sn125     1.0  0.39879  0.76026  0.38278  1.0000
  C   C483      1.0  0.41767  0.78068  0.41405  1.0000
  C  Sn126     1.0  0.41486  0.80284  0.48198  1.0000
  C  Sn127     1.0  0.39270  0.80462  0.51955  1.0000
  C   C484      1.0  0.37384  0.78421  0.48831  1.0000
  C  Sn128     1.0  0.37664  0.76204  0.42035  1.0000
  O  Te125     1.0  0.40200  0.73829  0.31482  1.0000
  O  Te126     1.0  0.43400  0.82300  0.51208  1.0000
  O  Te127     1.0  0.38950  0.82662  0.58755  1.0000
  O  Te128     1.0  0.35751  0.74189  0.39029  1.0000
  Mg  Mg63      1.0  0.42086  0.84895  0.60607  1.0000
  Mg  Mg64      1.0  0.37062  0.71593  0.29639  1.0000
  C  Sn129     1.0  0.28160  0.54280  0.69370  1.0000
  C   C485      1.0  0.30638  0.54308  0.59496  1.0000
  C  Sn130     1.0  0.31331  0.52339  0.44758  1.0000
  C  Sn131     1.0  0.29511  0.50301  0.39777  1.0000
  C   C486      1.0  0.27034  0.50274  0.49646  1.0000
  C  Sn132     1.0  0.26339  0.52242  0.64389  1.0000
  O  Te129     1.0  0.27508  0.56269  0.84054  1.0000
  O  Te130     1.0  0.33820  0.52408  0.35097  1.0000
  O  Te131     1.0  0.30164  0.48312  0.25080  1.0000
  O  Te132     1.0  0.23852  0.52174  0.74045  1.0000
  Mg  Mg65      1.0  0.33790  0.49260  0.16136  1.0000
  Mg  Mg66      1.0  0.23880  0.55321  0.93002  1.0000
  C  Sn133     1.0  0.76505  0.38074  0.11337  1.0000
  C   C487      1.0  0.78559  0.37233  0.00709  1.0000
  C  Sn134     1.0  0.75119  0.42661  0.90906  1.0000
  C  Sn135     1.0  0.75382  0.44879  0.91753  1.0000
  C   C488      1.0  0.79080  0.41620  0.02379  1.0000
  C  Sn136     1.0  0.76769  0.40292  0.12184  1.0000
  O  Te133     1.0  0.74213  0.36716  0.21025  1.0000
  O  Te134     1.0  0.77145  0.41783  0.80370  1.0000
  O  Te135     1.0  0.77677  0.46237  0.82053  1.0000
  O  Te136     1.0  0.74743  0.41169  0.22718  1.0000
  Mg  Mg67      1.0  0.79885  0.44287  0.69633  1.0000
  Mg  Mg68      1.0  0.72003  0.38668  0.33467  1.0000
  C  Sn137     1.0  0.49232  0.79190  0.06357  1.0000
  C   C489      1.0  0.49496  0.77117  0.03250  1.0000
  C  Sn138     1.0  0.42177  0.79029  0.97418  1.0000
  C  Sn139     1.0  0.40308  0.78912  0.94621  1.0000
  C   C490      1.0  0.40045  0.80984  0.97725  1.0000
  C  Sn140     1.0  0.47362  0.79072  0.03561  1.0000
  O  Te137     1.0  0.50820  0.81357  0.12183  1.0000
  O  Te138     1.0  0.42476  0.76981  0.94407  1.0000
  O  Te139     1.0  0.38719  0.76742  0.88791  1.0000
  O  Te140     1.0  0.47064  0.81119  0.06567  1.0000
  Mg  Mg69      1.0  0.39859  0.74447  0.86529  1.0000
  Mg  Mg70      1.0  0.49681  0.83654  0.14437  1.0000
  C  Sn141     1.0  0.73024  0.46804  0.82565  1.0000
  C   C491      1.0  0.73153  0.49179  0.92533  1.0000
  C  Sn142     1.0  0.76786  0.45733  0.07304  1.0000
  C  Sn143     1.0  0.74491  0.43976  0.12225  1.0000
  C   C492      1.0  0.74362  0.41603  0.02262  1.0000
  C  Sn144     1.0  0.70729  0.45047  0.87486  1.0000
  O  Te141     1.0  0.75165  0.46192  0.67849  1.0000
  O  Te142     1.0  0.76961  0.48119  0.17059  1.0000
  O  Te143     1.0  0.72349  0.44590  0.26954  1.0000
  O  Te144     1.0  0.70554  0.42663  0.77736  1.0000
  Mg  Mg71      1.0  0.73529  0.48071  0.36032  1.0000
  Mg  Mg72      1.0  0.73985  0.42709  0.58768  1.0000
