data_image0
_chemical_formula_structural       H168C276N24O48SnCSn2CSnTe4Mg2SnCSn2CSnTe4Mg2SnCSn2CSnTe4Mg2SnCSn2CSnTe4Mg2SnCSn2CSnTe4Mg2SnCSn2CSnTe4Mg2SnCSn2CSnTe4Mg2SnCSn2CSnTe4Mg2SnCSn2CSnTe4Mg2SnCSn2CSnTe4Mg2SnCSn2CSnTe4Mg2SnCSn2CSnTe4Mg2SnCSn2CSnTe4Mg2SnCSn2CSnTe4Mg2SnCSn2CSnTe4Mg2SnCSn2CSnTe4Mg2SnCSn2CSnTe4Mg2SnCSn2CSnTe4Mg2SnCSn2CSnTe4Mg2SnCSn2CSnTe4Mg2SnCSn2CSnTe4Mg2SnCSn2CSnTe4Mg2SnCSn2CSnTe4Mg2SnCSn2CSnTe4Mg2
_chemical_formula_sum              "H168 C324 N24 O48 Sn96 Te96 Mg48"
_cell_length_a       55.9021
_cell_length_b       55.9089
_cell_length_c       10.0076
_cell_angle_alpha    90.0692
_cell_angle_beta     89.9664
_cell_angle_gamma    120.003

_symmetry_space_group_name_H-M    'P1'
_space_group_IT_number       1

loop_
  _space_group_symop_operation_xyz
  'x, y, z'

loop_
  _atom_site_type_symbol
  _atom_site_label
  _atom_site_symmetry_multiplicity
  _atom_site_fract_x
  _atom_site_fract_y
  _atom_site_fract_z
  _atom_site_occupancy
  H   H1        1.0  0.46840  0.51461  0.25910  1.0000
  H   H2        1.0  0.48512  0.95365  0.25874  1.0000
  H   H3        1.0  0.04630  0.53142  0.25866  1.0000
  H   H4        1.0  0.51453  0.04614  0.25967  1.0000
  H   H5        1.0  0.44523  0.45552  0.94104  1.0000
  H   H6        1.0  0.54445  0.98966  0.94199  1.0000
  H   H7        1.0  0.01005  0.55468  0.94300  1.0000
  H   H8        1.0  0.45555  0.01030  0.94135  1.0000
  H   H9        1.0  0.40044  0.45426  0.91851  1.0000
  H   H10       1.0  0.54577  0.94616  0.91950  1.0000
  H   H11       1.0  0.05352  0.59950  0.92037  1.0000
  H   H12       1.0  0.45433  0.05385  0.91900  1.0000
  H   H13       1.0  0.42259  0.51132  0.24686  1.0000
  H   H14       1.0  0.48847  0.91116  0.24648  1.0000
  H   H15       1.0  0.08877  0.57726  0.24630  1.0000
  H   H16       1.0  0.51128  0.08869  0.24752  1.0000
  H   H17       1.0  0.98388  0.54228  0.25194  1.0000
  H   H18       1.0  0.54235  0.55847  0.25110  1.0000
  H   H19       1.0  0.94025  0.54363  0.23699  1.0000
  H   H20       1.0  0.54357  0.60338  0.23640  1.0000
  H   H21       1.0  0.91473  0.48765  0.90313  1.0000
  H   H22       1.0  0.48762  0.57284  0.90270  1.0000
  H   H23       1.0  0.95730  0.48453  0.92689  1.0000
  H   H24       1.0  0.48460  0.52719  0.92634  1.0000
  H   H25       1.0  0.54726  0.87101  0.33212  1.0000
  H   H26       1.0  0.12899  0.67619  0.33311  1.0000
  H   H27       1.0  0.54569  0.82594  0.32078  1.0000
  H   H28       1.0  0.17404  0.71967  0.32168  1.0000
  H   H29       1.0  0.49179  0.80326  0.97912  1.0000
  H   H30       1.0  0.19641  0.68853  0.97831  1.0000
  H   H31       1.0  0.49461  0.84909  0.98696  1.0000
  H   H32       1.0  0.15056  0.64554  0.98609  1.0000
  H   H33       1.0  0.49587  0.38406  0.25367  1.0000
  H   H34       1.0  0.61594  0.11172  0.25375  1.0000
  H   H35       1.0  0.88816  0.50401  0.25389  1.0000
  H   H36       1.0  0.50395  0.61587  0.25329  1.0000
  H   H37       1.0  0.38396  0.88811  0.25340  1.0000
  H   H38       1.0  0.11176  0.49584  0.25361  1.0000
  H   H39       1.0  0.51340  0.35429  0.32490  1.0000
  H   H40       1.0  0.84080  0.48629  0.32483  1.0000
  H   H41       1.0  0.48619  0.64550  0.32399  1.0000
  H   H42       1.0  0.35430  0.84066  0.32361  1.0000
  H   H43       1.0  0.15916  0.51360  0.32431  1.0000
  H   H44       1.0  0.51109  0.30879  0.31913  1.0000
  H   H45       1.0  0.79759  0.48858  0.31992  1.0000
  H   H46       1.0  0.48859  0.69104  0.31933  1.0000
  H   H47       1.0  0.30876  0.79756  0.31838  1.0000
  H   H48       1.0  0.20237  0.51132  0.31875  1.0000
  H   H49       1.0  0.45594  0.28477  0.98143  1.0000
  H   H50       1.0  0.82881  0.54415  0.98421  1.0000
  H   H51       1.0  0.54431  0.71540  0.98388  1.0000
  H   H52       1.0  0.28454  0.82892  0.98266  1.0000
  H   H53       1.0  0.17115  0.45590  0.98191  1.0000
  H   H54       1.0  0.45969  0.33112  0.98318  1.0000
  H   H55       1.0  0.87144  0.54041  0.98481  1.0000
  H   H56       1.0  0.54048  0.66900  0.98430  1.0000
  H   H57       1.0  0.33095  0.87143  0.98369  1.0000
  H   H58       1.0  0.12851  0.45962  0.98331  1.0000
  H   H59       1.0  0.52584  0.28518  0.13153  1.0000
  H   H60       1.0  0.71471  0.24065  0.13160  1.0000
  H   H61       1.0  0.75933  0.47417  0.12995  1.0000
  H   H62       1.0  0.47413  0.71472  0.13155  1.0000
  H   H63       1.0  0.28511  0.75948  0.12919  1.0000
  H   H64       1.0  0.24062  0.52582  0.12998  1.0000
  H   H65       1.0  0.24116  0.43800  0.15888  1.0000
  H   H66       1.0  0.56190  0.80323  0.15864  1.0000
  H   H67       1.0  0.19659  0.75856  0.16118  1.0000
  H   H68       1.0  0.75882  0.56198  0.16270  1.0000
  H   H69       1.0  0.43795  0.19672  0.15534  1.0000
  H   H70       1.0  0.80310  0.24099  0.15251  1.0000
  H   H71       1.0  0.84290  0.59003  0.27236  1.0000
  H   H72       1.0  0.40906  0.25215  0.26078  1.0000
  H   H73       1.0  0.74763  0.15678  0.25844  1.0000
  H   H74       1.0  0.15677  0.40970  0.26440  1.0000
  H   H75       1.0  0.59041  0.74783  0.26906  1.0000
  H   H76       1.0  0.25249  0.84312  0.26576  1.0000
  H   H77       1.0  0.68894  0.47660  0.24295  1.0000
  H   H78       1.0  0.52349  0.21256  0.24377  1.0000
  H   H79       1.0  0.78752  0.31093  0.24336  1.0000
  H   H80       1.0  0.31089  0.52351  0.24385  1.0000
  H   H81       1.0  0.47616  0.78733  0.24333  1.0000
  H   H82       1.0  0.21238  0.68890  0.24176  1.0000
  H   H83       1.0  0.37224  0.47221  0.26632  1.0000
  H   H84       1.0  0.52775  0.90004  0.26643  1.0000
  H   H85       1.0  0.09994  0.62763  0.26710  1.0000
  H   H86       1.0  0.62763  0.52762  0.26657  1.0000
  H   H87       1.0  0.47213  0.09994  0.26681  1.0000
  H   H88       1.0  0.90003  0.37210  0.26520  1.0000
  H   H89       1.0  0.46850  0.51477  0.75879  1.0000
  H   H90       1.0  0.04612  0.53172  0.76038  1.0000
  H   H91       1.0  0.53162  0.48557  0.75959  1.0000
  H   H92       1.0  0.51472  0.04628  0.75951  1.0000
  H   H93       1.0  0.44517  0.45554  0.44122  1.0000
  H   H94       1.0  0.01042  0.55470  0.44098  1.0000
  H   H95       1.0  0.55475  0.54427  0.44031  1.0000
  H   H96       1.0  0.45565  0.01039  0.44155  1.0000
  H   H97       1.0  0.40038  0.45429  0.41909  1.0000
  H   H98       1.0  0.05397  0.59944  0.41843  1.0000
  H   H99       1.0  0.59952  0.54548  0.41811  1.0000
  H   H100      1.0  0.45438  0.05391  0.41937  1.0000
  H   H101      1.0  0.42268  0.51148  0.74694  1.0000
  H   H102      1.0  0.08866  0.57751  0.74802  1.0000
  H   H103      1.0  0.57742  0.48881  0.74755  1.0000
  H   H104      1.0  0.51140  0.08879  0.74759  1.0000
  H   H105      1.0  0.45738  0.44154  0.74986  1.0000
  H   H106      1.0  0.98396  0.54247  0.75149  1.0000
  H   H107      1.0  0.44155  0.98405  0.75092  1.0000
  H   H108      1.0  0.45611  0.39659  0.73514  1.0000
  H   H109      1.0  0.94027  0.54372  0.73667  1.0000
  H   H110      1.0  0.39662  0.94038  0.73616  1.0000
  H   H111      1.0  0.51260  0.42719  0.40357  1.0000
  H   H112      1.0  0.91477  0.48770  0.40300  1.0000
  H   H113      1.0  0.42716  0.91475  0.40296  1.0000
  H   H114      1.0  0.51565  0.47285  0.42719  1.0000
  H   H115      1.0  0.95740  0.48466  0.42660  1.0000
  H   H116      1.0  0.47281  0.95736  0.42676  1.0000
  H   H117      1.0  0.54740  0.87094  0.83122  1.0000
  H   H118      1.0  0.45261  0.12910  0.83208  1.0000
  H   H119      1.0  0.54570  0.82581  0.81914  1.0000
  H   H120      1.0  0.45432  0.17422  0.82097  1.0000
  H   H121      1.0  0.49159  0.80332  0.47845  1.0000
  H   H122      1.0  0.50840  0.19680  0.48018  1.0000
  H   H123      1.0  0.49454  0.84921  0.48693  1.0000
  H   H124      1.0  0.50546  0.15091  0.48766  1.0000
  H   H125      1.0  0.49585  0.38414  0.75320  1.0000
  H   H126      1.0  0.61607  0.11186  0.75375  1.0000
  H   H127      1.0  0.88817  0.50392  0.75367  1.0000
  H   H128      1.0  0.50435  0.61607  0.75312  1.0000
  H   H129      1.0  0.38410  0.88827  0.75336  1.0000
  H   H130      1.0  0.11175  0.49592  0.75358  1.0000
  H   H131      1.0  0.51348  0.35447  0.82440  1.0000
  H   H132      1.0  0.35444  0.84100  0.82497  1.0000
  H   H133      1.0  0.51116  0.30896  0.81912  1.0000
  H   H134      1.0  0.30897  0.79782  0.82008  1.0000
  H   H135      1.0  0.45576  0.28468  0.48242  1.0000
  H   H136      1.0  0.28478  0.82869  0.48223  1.0000
  H   H137      1.0  0.45951  0.33104  0.48355  1.0000
  H   H138      1.0  0.33108  0.87128  0.48302  1.0000
  H   H139      1.0  0.52585  0.28544  0.63311  1.0000
  H   H140      1.0  0.71485  0.24070  0.63456  1.0000
  H   H141      1.0  0.75897  0.47359  0.63710  1.0000
  H   H142      1.0  0.47391  0.71459  0.63253  1.0000
  H   H143      1.0  0.28541  0.75929  0.63589  1.0000
  H   H144      1.0  0.24078  0.52606  0.63506  1.0000
  H   H145      1.0  0.24105  0.43798  0.65567  1.0000
  H   H146      1.0  0.56168  0.80317  0.65460  1.0000
  H   H147      1.0  0.19684  0.75858  0.65421  1.0000
  H   H148      1.0  0.75879  0.56173  0.65358  1.0000
  H   H149      1.0  0.43824  0.19680  0.65697  1.0000
  H   H150      1.0  0.80331  0.24129  0.65576  1.0000
  H   H151      1.0  0.84257  0.59056  0.76357  1.0000
  H   H152      1.0  0.40904  0.25196  0.76269  1.0000
  H   H153      1.0  0.74817  0.15716  0.76282  1.0000
  H   H154      1.0  0.15725  0.40962  0.76714  1.0000
  H   H155      1.0  0.59097  0.74825  0.76064  1.0000
  H   H156      1.0  0.25175  0.84275  0.76075  1.0000
  H   H157      1.0  0.68875  0.47699  0.74525  1.0000
  H   H158      1.0  0.52380  0.21241  0.74103  1.0000
  H   H159      1.0  0.78769  0.31083  0.74756  1.0000
  H   H160      1.0  0.31091  0.52317  0.74782  1.0000
  H   H161      1.0  0.47665  0.78797  0.74029  1.0000
  H   H162      1.0  0.21180  0.68882  0.74375  1.0000
  H   H163      1.0  0.37216  0.47209  0.76649  1.0000
  H   H164      1.0  0.52780  0.90003  0.76663  1.0000
  H   H165      1.0  0.09990  0.62798  0.76600  1.0000
  H   H166      1.0  0.62790  0.52806  0.76597  1.0000
  H   H167      1.0  0.47214  0.10000  0.76682  1.0000
  H   H168      1.0  0.90021  0.37224  0.76544  1.0000
  C   C1        1.0  0.46030  0.48542  0.10104  1.0000
  C   C2        1.0  0.51443  0.97479  0.10134  1.0000
  C   C3        1.0  0.02504  0.53957  0.10181  1.0000
  C   C4        1.0  0.48538  0.02509  0.10150  1.0000
  C   C5        1.0  0.44031  0.46786  0.00758  1.0000
  C   C6        1.0  0.53207  0.97239  0.00824  1.0000
  C   C7        1.0  0.02736  0.55959  0.00901  1.0000
  C   C8        1.0  0.46787  0.02754  0.00799  1.0000
  C   C9        1.0  0.41516  0.46702  0.99489  1.0000
  C   C10       1.0  0.53294  0.94808  0.99555  1.0000
  C   C11       1.0  0.05165  0.58476  0.99626  1.0000
  C   C12       1.0  0.46706  0.05187  0.99538  1.0000
  C   C13       1.0  0.45331  0.50092  0.18660  1.0000
  C   C14       1.0  0.49888  0.95229  0.18652  1.0000
  C   C15       1.0  0.04761  0.54654  0.18668  1.0000
  C   C16       1.0  0.50087  0.04757  0.18713  1.0000
  C   C17       1.0  0.96855  0.52991  0.17685  1.0000
  C   C18       1.0  0.52996  0.56140  0.17610  1.0000
  C   C19       1.0  0.94409  0.53076  0.16876  1.0000
  C   C20       1.0  0.53074  0.58667  0.16812  1.0000
  C   C21       1.0  0.92963  0.49909  0.98133  1.0000
  C   C22       1.0  0.49908  0.56941  0.98082  1.0000
  C   C23       1.0  0.95354  0.49755  0.99409  1.0000
  C   C24       1.0  0.49760  0.54399  0.99349  1.0000
  C   C25       1.0  0.36733  0.47734  0.16766  1.0000
  C   C26       1.0  0.52259  0.88997  0.16779  1.0000
  C   C27       1.0  0.10989  0.63256  0.16822  1.0000
  C   C28       1.0  0.63260  0.52260  0.16774  1.0000
  C   C29       1.0  0.47730  0.10997  0.16818  1.0000
  C   C30       1.0  0.88998  0.36720  0.16655  1.0000
  C   C31       1.0  0.52132  0.86319  0.15891  1.0000
  C   C32       1.0  0.13664  0.65809  0.15910  1.0000
  C   C33       1.0  0.53563  0.85640  0.25297  1.0000
  C   C34       1.0  0.14351  0.67917  0.25358  1.0000
  C   C35       1.0  0.53477  0.83111  0.24661  1.0000
  C   C36       1.0  0.16881  0.70360  0.24719  1.0000
  C   C37       1.0  0.51883  0.81146  0.14852  1.0000
  C   C38       1.0  0.18837  0.70732  0.14865  1.0000
  C   C39       1.0  0.26669  0.48234  0.14667  1.0000
  C   C40       1.0  0.51754  0.78430  0.14718  1.0000
  C   C41       1.0  0.21553  0.73319  0.14724  1.0000
  C   C42       1.0  0.73330  0.51767  0.14801  1.0000
  C   C43       1.0  0.48232  0.21561  0.14629  1.0000
  C   C44       1.0  0.78429  0.26656  0.14494  1.0000
  C   C45       1.0  0.48898  0.37289  0.15810  1.0000
  C   C46       1.0  0.62709  0.11594  0.15816  1.0000
  C   C47       1.0  0.88390  0.51097  0.15856  1.0000
  C   C48       1.0  0.51091  0.62706  0.15789  1.0000
  C   C49       1.0  0.37278  0.88386  0.15794  1.0000
  C   C50       1.0  0.11603  0.48894  0.15804  1.0000
  C   C51       1.0  0.48672  0.34567  0.15387  1.0000
  C   C52       1.0  0.85892  0.51318  0.15460  1.0000
  C   C53       1.0  0.51318  0.65428  0.15400  1.0000
  C   C54       1.0  0.34558  0.85889  0.15365  1.0000
  C   C55       1.0  0.14103  0.48677  0.15363  1.0000
  C   C56       1.0  0.50115  0.33919  0.24858  1.0000
  C   C57       1.0  0.83796  0.49861  0.24905  1.0000
  C   C58       1.0  0.49859  0.66068  0.24841  1.0000
  C   C59       1.0  0.33915  0.83790  0.24784  1.0000
  C   C60       1.0  0.16198  0.50130  0.24818  1.0000
  C   C61       1.0  0.49985  0.31366  0.24548  1.0000
  C   C62       1.0  0.81372  0.49991  0.24643  1.0000
  C   C63       1.0  0.49995  0.68623  0.24591  1.0000
  C   C64       1.0  0.31359  0.81371  0.24499  1.0000
  C   C65       1.0  0.18622  0.50002  0.24521  1.0000
  C   C66       1.0  0.48313  0.29361  0.15105  1.0000
  C   C67       1.0  0.81043  0.51674  0.15281  1.0000
  C   C68       1.0  0.51685  0.70637  0.15242  1.0000
  C   C69       1.0  0.29347  0.81047  0.15134  1.0000
  C   C70       1.0  0.18952  0.48323  0.15104  1.0000
  C   C71       1.0  0.46847  0.30000  0.05678  1.0000
  C   C72       1.0  0.83150  0.53152  0.05877  1.0000
  C   C73       1.0  0.53166  0.70008  0.05849  1.0000
  C   C74       1.0  0.29983  0.83154  0.05738  1.0000
  C   C75       1.0  0.16846  0.46849  0.05692  1.0000
  C   C76       1.0  0.47051  0.32581  0.05721  1.0000
  C   C77       1.0  0.85528  0.52948  0.05862  1.0000
  C   C78       1.0  0.52957  0.67424  0.05823  1.0000
  C   C79       1.0  0.32566  0.85528  0.05752  1.0000
  C   C80       1.0  0.14468  0.47052  0.05717  1.0000
  C   C81       1.0  0.50636  0.26585  0.13993  1.0000
  C   C82       1.0  0.73403  0.24045  0.13961  1.0000
  C   C83       1.0  0.75948  0.49363  0.14000  1.0000
  C   C84       1.0  0.49358  0.73407  0.14054  1.0000
  C   C85       1.0  0.26574  0.75954  0.13902  1.0000
  C   C86       1.0  0.24049  0.50636  0.13924  1.0000
  C   C87       1.0  0.45676  0.24077  0.15752  1.0000
  C   C88       1.0  0.75907  0.21587  0.15566  1.0000
  C   C89       1.0  0.78397  0.54313  0.16341  1.0000
  C   C90       1.0  0.54314  0.75922  0.16045  1.0000
  C   C91       1.0  0.24056  0.78390  0.16156  1.0000
  C   C92       1.0  0.21600  0.45683  0.16005  1.0000
  C   C93       1.0  0.24140  0.45757  0.15486  1.0000
  C   C94       1.0  0.54237  0.78386  0.15512  1.0000
  C   C95       1.0  0.21596  0.75842  0.15646  1.0000
  C   C96       1.0  0.75858  0.54242  0.15783  1.0000
  C   C97       1.0  0.45750  0.21610  0.15297  1.0000
  C   C98       1.0  0.78376  0.24123  0.15071  1.0000
  C   C99       1.0  0.42874  0.23751  0.17392  1.0000
  C   C100      1.0  0.76224  0.19106  0.17108  1.0000
  C   C101      1.0  0.80847  0.57106  0.18563  1.0000
  C   C102      1.0  0.57111  0.76256  0.17974  1.0000
  C   C103      1.0  0.23694  0.80830  0.18324  1.0000
  C   C104      1.0  0.19147  0.42887  0.18027  1.0000
  C   C105      1.0  0.29077  0.53592  0.13437  1.0000
  C   C106      1.0  0.46394  0.75468  0.13476  1.0000
  C   C107      1.0  0.24516  0.70925  0.13423  1.0000
  C   C108      1.0  0.70920  0.46411  0.13459  1.0000
  C   C109      1.0  0.53592  0.24516  0.13488  1.0000
  C   C110      1.0  0.75488  0.29073  0.13443  1.0000
  C   C111      1.0  0.48784  0.48753  0.10109  1.0000
  C   C112      1.0  0.51235  0.00024  0.10143  1.0000
  C   C113      1.0  0.99961  0.51203  0.10178  1.0000
  C   C114      1.0  0.51212  0.51244  0.10108  1.0000
  C   C115      1.0  0.48745  0.99964  0.10147  1.0000
  C   C116      1.0  0.00024  0.48775  0.10152  1.0000
  C   C117      1.0  0.97351  0.51282  0.09183  1.0000
  C   C118      1.0  0.51290  0.53933  0.09109  1.0000
  C   C119      1.0  0.48167  0.26641  0.15087  1.0000
  C   C120      1.0  0.73345  0.21518  0.14964  1.0000
  C   C121      1.0  0.78472  0.51827  0.15314  1.0000
  C   C122      1.0  0.51828  0.73356  0.15241  1.0000
  C   C123      1.0  0.26623  0.78475  0.15160  1.0000
  C   C124      1.0  0.21523  0.48170  0.15113  1.0000
  C   C125      1.0  0.50727  0.24126  0.13976  1.0000
  C   C126      1.0  0.75867  0.26591  0.13897  1.0000
  C   C127      1.0  0.73399  0.49274  0.13983  1.0000
  C   C128      1.0  0.49263  0.75864  0.14017  1.0000
  C   C129      1.0  0.24120  0.73398  0.13911  1.0000
  C   C130      1.0  0.26599  0.50727  0.13917  1.0000
  C   C131      1.0  0.40829  0.48245  0.08197  1.0000
  C   C132      1.0  0.51745  0.92577  0.08223  1.0000
  C   C133      1.0  0.07403  0.59161  0.08263  1.0000
  C   C134      1.0  0.48246  0.07415  0.08256  1.0000
  C   C135      1.0  0.50433  0.81829  0.05501  1.0000
  C   C136      1.0  0.18145  0.68603  0.05460  1.0000
  C   C137      1.0  0.50572  0.84380  0.05939  1.0000
  C   C138      1.0  0.15592  0.66191  0.05895  1.0000
  C   C139      1.0  0.92422  0.51523  0.07091  1.0000
  C   C140      1.0  0.51519  0.59097  0.07036  1.0000
  C   C141      1.0  0.42764  0.49922  0.17939  1.0000
  C   C142      1.0  0.50061  0.92833  0.17930  1.0000
  C   C143      1.0  0.07154  0.57222  0.17940  1.0000
  C   C144      1.0  0.49919  0.07154  0.17998  1.0000
  C   C145      1.0  0.46033  0.48551  0.60093  1.0000
  C   C146      1.0  0.02514  0.53972  0.60162  1.0000
  C   C147      1.0  0.53970  0.51456  0.60090  1.0000
  C   C148      1.0  0.48552  0.02519  0.60151  1.0000
  C   C149      1.0  0.44030  0.46792  0.50773  1.0000
  C   C150      1.0  0.02763  0.55965  0.50782  1.0000
  C   C151      1.0  0.55967  0.53201  0.50719  1.0000
  C   C152      1.0  0.46797  0.02764  0.50817  1.0000
  C   C153      1.0  0.41513  0.46708  0.49526  1.0000
  C   C154      1.0  0.05197  0.58478  0.49508  1.0000
  C   C155      1.0  0.58482  0.53281  0.49464  1.0000
  C   C156      1.0  0.46713  0.05195  0.49567  1.0000
  C   C157      1.0  0.45337  0.50104  0.68646  1.0000
  C   C158      1.0  0.04757  0.54676  0.68753  1.0000
  C   C159      1.0  0.54670  0.49917  0.68684  1.0000
  C   C160      1.0  0.50101  0.04768  0.68712  1.0000
  C   C161      1.0  0.46987  0.43861  0.67531  1.0000
  C   C162      1.0  0.96863  0.53007  0.67647  1.0000
  C   C163      1.0  0.43861  0.96868  0.67604  1.0000
  C   C164      1.0  0.46906  0.41333  0.66733  1.0000
  C   C165      1.0  0.94414  0.53087  0.66847  1.0000
  C   C166      1.0  0.41333  0.94420  0.66800  1.0000
  C   C167      1.0  0.50102  0.43061  0.48121  1.0000
  C   C168      1.0  0.92968  0.49916  0.48114  1.0000
  C   C169      1.0  0.43058  0.92968  0.48101  1.0000
  C   C170      1.0  0.50251  0.45604  0.49385  1.0000
  C   C171      1.0  0.95363  0.49768  0.49381  1.0000
  C   C172      1.0  0.45602  0.95362  0.49378  1.0000
  C   C173      1.0  0.36730  0.47732  0.66800  1.0000
  C   C174      1.0  0.52261  0.88998  0.66794  1.0000
  C   C175      1.0  0.11002  0.63272  0.66755  1.0000
  C   C176      1.0  0.63272  0.52275  0.66751  1.0000
  C   C177      1.0  0.47739  0.11007  0.66828  1.0000
  C   C178      1.0  0.89008  0.36740  0.66701  1.0000
  C   C179      1.0  0.52132  0.86320  0.65866  1.0000
  C   C180      1.0  0.47868  0.13686  0.65941  1.0000
  C   C181      1.0  0.53567  0.85635  0.75218  1.0000
  C   C182      1.0  0.46433  0.14370  0.75321  1.0000
  C   C183      1.0  0.53474  0.83102  0.74536  1.0000
  C   C184      1.0  0.46527  0.16903  0.74694  1.0000
  C   C185      1.0  0.51869  0.81140  0.64736  1.0000
  C   C186      1.0  0.48131  0.18866  0.64915  1.0000
  C   C187      1.0  0.26663  0.48233  0.64781  1.0000
  C   C188      1.0  0.51732  0.78419  0.64571  1.0000
  C   C189      1.0  0.21581  0.73317  0.64736  1.0000
  C   C190      1.0  0.73319  0.51736  0.64800  1.0000
  C   C191      1.0  0.48263  0.21584  0.64753  1.0000
  C   C192      1.0  0.78443  0.26679  0.64739  1.0000
  C   C193      1.0  0.48892  0.37293  0.65775  1.0000
  C   C194      1.0  0.62723  0.11610  0.65821  1.0000
  C   C195      1.0  0.88392  0.51095  0.65855  1.0000
  C   C196      1.0  0.51129  0.62725  0.65769  1.0000
  C   C197      1.0  0.37293  0.88397  0.65787  1.0000
  C   C198      1.0  0.11603  0.48899  0.65814  1.0000
  C   C199      1.0  0.48666  0.34572  0.65379  1.0000
  C   C200      1.0  0.34574  0.85897  0.65386  1.0000
  C   C201      1.0  0.50117  0.33931  0.74841  1.0000
  C   C202      1.0  0.33931  0.83811  0.74880  1.0000
  C   C203      1.0  0.49986  0.31378  0.74560  1.0000
  C   C204      1.0  0.31379  0.81387  0.74617  1.0000
  C   C205      1.0  0.48305  0.29365  0.65166  1.0000
  C   C206      1.0  0.29370  0.81046  0.65194  1.0000
  C   C207      1.0  0.46833  0.29997  0.55743  1.0000
  C   C208      1.0  0.30002  0.83145  0.55748  1.0000
  C   C209      1.0  0.47038  0.32579  0.55753  1.0000
  C   C210      1.0  0.32583  0.85523  0.55741  1.0000
  C   C211      1.0  0.50643  0.26605  0.64126  1.0000
  C   C212      1.0  0.73418  0.24054  0.64231  1.0000
  C   C213      1.0  0.75925  0.49315  0.64414  1.0000
  C   C214      1.0  0.49339  0.73396  0.64039  1.0000
  C   C215      1.0  0.26605  0.75943  0.64291  1.0000
  C   C216      1.0  0.24056  0.50653  0.64271  1.0000
  C   C217      1.0  0.45684  0.24077  0.65908  1.0000
  C   C218      1.0  0.75935  0.21610  0.65876  1.0000
  C   C219      1.0  0.78388  0.54277  0.65783  1.0000
  C   C220      1.0  0.54301  0.75918  0.65729  1.0000
  C   C221      1.0  0.24088  0.78389  0.65725  1.0000
  C   C222      1.0  0.21594  0.45693  0.65881  1.0000
  C   C223      1.0  0.24129  0.45756  0.65359  1.0000
  C   C224      1.0  0.54216  0.78378  0.65220  1.0000
  C   C225      1.0  0.21624  0.75845  0.65258  1.0000
  C   C226      1.0  0.75854  0.54215  0.65284  1.0000
  C   C227      1.0  0.45776  0.21620  0.65431  1.0000
  C   C228      1.0  0.78397  0.24152  0.65374  1.0000
  C   C229      1.0  0.42873  0.23714  0.67715  1.0000
  C   C230      1.0  0.76291  0.19155  0.67554  1.0000
  C   C231      1.0  0.80872  0.57069  0.67314  1.0000
  C   C232      1.0  0.57111  0.76271  0.67423  1.0000
  C   C233      1.0  0.23748  0.80854  0.67316  1.0000
  C   C234      1.0  0.19119  0.42901  0.67648  1.0000
  C   C235      1.0  0.29083  0.53592  0.64026  1.0000
  C   C236      1.0  0.46367  0.75451  0.63727  1.0000
  C   C237      1.0  0.24551  0.70918  0.64259  1.0000
  C   C238      1.0  0.70903  0.46366  0.64321  1.0000
  C   C239      1.0  0.53633  0.24573  0.63771  1.0000
  C   C240      1.0  0.75487  0.29079  0.63995  1.0000
  C   C241      1.0  0.48787  0.48759  0.60086  1.0000
  C   C242      1.0  0.51250  0.00035  0.60121  1.0000
  C   C243      1.0  0.99969  0.51219  0.60152  1.0000
  C   C244      1.0  0.51216  0.51249  0.60088  1.0000
  C   C245      1.0  0.48760  0.99974  0.60134  1.0000
  C   C246      1.0  0.00032  0.48792  0.60134  1.0000
  C   C247      1.0  0.48707  0.46070  0.59087  1.0000
  C   C248      1.0  0.97360  0.51298  0.59147  1.0000
  C   C249      1.0  0.46069  0.97363  0.59129  1.0000
  C   C250      1.0  0.48166  0.26648  0.65182  1.0000
  C   C251      1.0  0.73367  0.21530  0.65222  1.0000
  C   C252      1.0  0.78455  0.51784  0.65292  1.0000
  C   C253      1.0  0.51815  0.73350  0.65071  1.0000
  C   C254      1.0  0.26655  0.78468  0.65188  1.0000
  C   C255      1.0  0.21527  0.48186  0.65240  1.0000
  C   C256      1.0  0.50753  0.24156  0.64137  1.0000
  C   C257      1.0  0.75877  0.26604  0.64232  1.0000
  C   C258      1.0  0.73380  0.49234  0.64415  1.0000
  C   C259      1.0  0.49239  0.75851  0.64004  1.0000
  C   C260      1.0  0.24149  0.73390  0.64304  1.0000
  C   C261      1.0  0.26600  0.50731  0.64288  1.0000
  C   C262      1.0  0.40831  0.48255  0.58228  1.0000
  C   C263      1.0  0.07421  0.59169  0.58241  1.0000
  C   C264      1.0  0.59169  0.51748  0.58205  1.0000
  C   C265      1.0  0.48256  0.07424  0.58275  1.0000
  C   C266      1.0  0.50421  0.81833  0.55423  1.0000
  C   C267      1.0  0.49580  0.18176  0.55577  1.0000
  C   C268      1.0  0.50566  0.84387  0.55906  1.0000
  C   C269      1.0  0.49435  0.15622  0.56008  1.0000
  C   C270      1.0  0.48474  0.40902  0.57014  1.0000
  C   C271      1.0  0.92427  0.51530  0.57071  1.0000
  C   C272      1.0  0.40901  0.92428  0.57035  1.0000
  C   C273      1.0  0.42771  0.49935  0.67946  1.0000
  C   C274      1.0  0.07155  0.57241  0.68026  1.0000
  C   C275      1.0  0.57236  0.50084  0.67976  1.0000
  C   C276      1.0  0.49931  0.07164  0.68007  1.0000
  N   N1        1.0  0.48372  0.38350  0.05558  1.0000
  N   N2        1.0  0.61644  0.10003  0.05564  1.0000
  N   N3        1.0  0.89981  0.51630  0.05602  1.0000
  N   N4        1.0  0.51625  0.61646  0.05541  1.0000
  N   N5        1.0  0.38337  0.89979  0.05555  1.0000
  N   N6        1.0  0.10011  0.48362  0.05557  1.0000
  N   N7        1.0  0.38298  0.48166  0.06501  1.0000
  N   N8        1.0  0.51824  0.90124  0.06516  1.0000
  N   N9        1.0  0.09852  0.61695  0.06550  1.0000
  N   N10       1.0  0.61700  0.51831  0.06500  1.0000
  N   N11       1.0  0.48168  0.09867  0.06555  1.0000
  N   N12       1.0  0.90127  0.38286  0.06399  1.0000
  N   N13       1.0  0.48366  0.38352  0.55517  1.0000
  N   N14       1.0  0.61663  0.10015  0.55576  1.0000
  N   N15       1.0  0.89984  0.51637  0.55599  1.0000
  N   N16       1.0  0.51658  0.61663  0.55511  1.0000
  N   N17       1.0  0.38353  0.89984  0.55532  1.0000
  N   N18       1.0  0.10015  0.48368  0.55551  1.0000
  N   N19       1.0  0.38299  0.48178  0.56544  1.0000
  N   N20       1.0  0.51824  0.90127  0.56542  1.0000
  N   N21       1.0  0.09878  0.61695  0.56517  1.0000
  N   N22       1.0  0.61699  0.51822  0.56502  1.0000
  N   N23       1.0  0.48181  0.09879  0.56573  1.0000
  N   N24       1.0  0.90127  0.38310  0.56451  1.0000
  O   O1        1.0  0.81024  0.59256  0.14617  1.0000
  O   O2        1.0  0.40762  0.21857  0.12628  1.0000
  O   O3        1.0  0.78067  0.18853  0.11960  1.0000
  O   O4        1.0  0.18981  0.40746  0.13966  1.0000
  O   O5        1.0  0.59241  0.78142  0.13314  1.0000
  O   O6        1.0  0.21680  0.80963  0.14629  1.0000
  O   O7        1.0  0.82867  0.57065  0.26114  1.0000
  O   O8        1.0  0.42850  0.25722  0.25426  1.0000
  O   O9        1.0  0.74302  0.17150  0.25442  1.0000
  O   O10       1.0  0.17109  0.42910  0.25507  1.0000
  O   O11       1.0  0.57102  0.74291  0.26151  1.0000
  O   O12       1.0  0.25789  0.82905  0.25499  1.0000
  O   O13       1.0  0.68644  0.45922  0.20707  1.0000
  O   O14       1.0  0.54084  0.22731  0.20707  1.0000
  O   O15       1.0  0.77269  0.31345  0.20714  1.0000
  O   O16       1.0  0.31348  0.54084  0.20713  1.0000
  O   O17       1.0  0.45885  0.77242  0.20710  1.0000
  O   O18       1.0  0.22740  0.68652  0.20694  1.0000
  O   O19       1.0  0.70940  0.44543  0.07342  1.0000
  O   O20       1.0  0.55455  0.26398  0.07330  1.0000
  O   O21       1.0  0.73600  0.29054  0.07337  1.0000
  O   O22       1.0  0.29058  0.55459  0.07323  1.0000
  O   O23       1.0  0.44536  0.73582  0.07308  1.0000
  O   O24       1.0  0.26407  0.70948  0.07324  1.0000
  O   O25       1.0  0.81164  0.59151  0.61854  1.0000
  O   O26       1.0  0.40756  0.21761  0.63335  1.0000
  O   O27       1.0  0.78212  0.18970  0.62878  1.0000
  O   O28       1.0  0.18853  0.40788  0.62654  1.0000
  O   O29       1.0  0.59215  0.78177  0.62658  1.0000
  O   O30       1.0  0.21866  0.81070  0.62386  1.0000
  O   O31       1.0  0.82777  0.57124  0.76086  1.0000
  O   O32       1.0  0.42851  0.25724  0.75443  1.0000
  O   O33       1.0  0.74309  0.17149  0.75477  1.0000
  O   O34       1.0  0.17190  0.42895  0.76108  1.0000
  O   O35       1.0  0.57151  0.74312  0.75453  1.0000
  O   O36       1.0  0.25682  0.82837  0.75531  1.0000
  O   O37       1.0  0.68625  0.45933  0.71355  1.0000
  O   O38       1.0  0.54120  0.22756  0.70709  1.0000
  O   O39       1.0  0.77274  0.31338  0.71339  1.0000
  O   O40       1.0  0.31344  0.54063  0.71333  1.0000
  O   O41       1.0  0.45911  0.77287  0.70716  1.0000
  O   O42       1.0  0.22712  0.68645  0.71341  1.0000
  O   O43       1.0  0.70928  0.44453  0.58680  1.0000
  O   O44       1.0  0.55515  0.26506  0.57964  1.0000
  O   O45       1.0  0.73594  0.29066  0.57979  1.0000
  O   O46       1.0  0.29073  0.55473  0.58008  1.0000
  O   O47       1.0  0.44469  0.73516  0.57996  1.0000
  O   O48       1.0  0.26493  0.70943  0.58663  1.0000
  C  Sn1       1.0  0.83476  0.33728  0.57627  1.0000
  C   C277      1.0  0.85683  0.34381  0.66268  1.0000
  C  Sn2       1.0  0.85745  0.32321  0.73893  1.0000
  C  Sn3       1.0  0.83556  0.29551  0.72855  1.0000
  C   C278      1.0  0.81351  0.28898  0.64216  1.0000
  C  Sn4       1.0  0.81287  0.30957  0.56588  1.0000
  O  Te1       1.0  0.83457  0.35820  0.50099  1.0000
  O  Te2       1.0  0.87972  0.33025  0.82466  1.0000
  O  Te3       1.0  0.83576  0.27458  0.80392  1.0000
  O  Te4       1.0  0.79061  0.30254  0.48018  1.0000
  Mg  Mg1       1.0  0.87061  0.29445  0.90648  1.0000
  Mg  Mg2       1.0  0.79971  0.33832  0.39827  1.0000
  C  Sn5       1.0  0.66257  0.17135  0.72997  1.0000
  C   C279      1.0  0.65320  0.14805  0.64841  1.0000
  C  Sn6       1.0  0.67179  0.14423  0.57074  1.0000
  C  Sn7       1.0  0.70036  0.16410  0.57473  1.0000
  C   C280      1.0  0.70972  0.18738  0.65626  1.0000
  C  Sn8       1.0  0.69113  0.19122  0.73396  1.0000
  O  Te5       1.0  0.64361  0.17474  0.80679  1.0000
  O  Te6       1.0  0.66193  0.12077  0.48994  1.0000
  O  Te7       1.0  0.71932  0.16069  0.49782  1.0000
  O  Te8       1.0  0.70098  0.21466  0.81473  1.0000
  Mg  Mg3       1.0  0.69585  0.12535  0.40364  1.0000
  Mg  Mg4       1.0  0.66709  0.21009  0.90113  1.0000
  C  Sn9       1.0  0.55461  0.50444  0.21821  1.0000
  C   C281      1.0  0.54406  0.51732  0.13704  1.0000
  C  Sn10      1.0  0.55686  0.52932  0.01594  1.0000
  C  Sn11      1.0  0.58069  0.52862  0.97508  1.0000
  C   C282      1.0  0.59122  0.51552  0.05622  1.0000
  C  Sn12      1.0  0.57844  0.50352  0.17735  1.0000
  O  Te9       1.0  0.54148  0.49258  0.33886  1.0000
  O  Te10      1.0  0.54595  0.54231  0.93651  1.0000
  O  Te11      1.0  0.59382  0.54049  0.85433  1.0000
  O  Te12      1.0  0.58934  0.49075  0.25675  1.0000
  Mg  Mg5       1.0  0.57116  0.55550  0.78075  1.0000
  Mg  Mg6       1.0  0.56414  0.47754  0.41248  1.0000
  C  Sn13      1.0  0.83356  0.30390  0.27806  1.0000
  C   C283      1.0  0.81258  0.29635  0.18355  1.0000
  C  Sn14      1.0  0.81781  0.31094  0.06376  1.0000
  C  Sn15      1.0  0.84456  0.33354  0.03785  1.0000
  C   C284      1.0  0.86552  0.34109  0.13231  1.0000
  C  Sn16      1.0  0.86031  0.32651  0.25214  1.0000
  O  Te13      1.0  0.82787  0.28903  0.39712  1.0000
  O  Te14      1.0  0.79650  0.30322  0.97083  1.0000
  O  Te15      1.0  0.85024  0.34864  0.91867  1.0000
  O  Te16      1.0  0.88160  0.33443  0.34503  1.0000
  Mg  Mg7       1.0  0.81444  0.32990  0.82327  1.0000
  Mg  Mg8       1.0  0.86369  0.30775  0.49259  1.0000
  C  Sn17      1.0  0.96511  0.43816  0.97150  1.0000
  C   C285      1.0  0.97159  0.45883  0.06544  1.0000
  C  Sn18      1.0  0.95539  0.45360  0.17984  1.0000
  C  Sn19      1.0  0.93224  0.42695  0.20085  1.0000
  C   C286      1.0  0.92577  0.40608  0.10696  1.0000
  C  Sn20      1.0  0.94196  0.41150  0.99251  1.0000
  O  Te17      1.0  0.98160  0.44384  0.85786  1.0000
  O  Te18      1.0  0.96227  0.47481  0.27231  1.0000
  O  Te19      1.0  0.91575  0.42128  0.31461  1.0000
  O  Te20      1.0  0.93510  0.39031  0.90009  1.0000
  Mg  Mg9       1.0  0.93351  0.45693  0.41157  1.0000
  Mg  Mg10      1.0  0.96385  0.40817  0.76084  1.0000
  C  Sn21      1.0  0.16644  0.47429  0.52591  1.0000
  C   C287      1.0  0.18866  0.48631  0.61494  1.0000
  C  Sn22      1.0  0.18617  0.49721  0.73642  1.0000
  C  Sn23      1.0  0.16095  0.49606  0.76965  1.0000
  C   C288      1.0  0.13875  0.48404  0.68066  1.0000
  C  Sn24      1.0  0.14122  0.47313  0.55914  1.0000
  O  Te21      1.0  0.16939  0.46352  0.40503  1.0000
  O  Te22      1.0  0.20867  0.50914  0.82378  1.0000
  O  Te23      1.0  0.15801  0.50684  0.89064  1.0000
  O  Te24      1.0  0.11873  0.46121  0.47182  1.0000
  Mg  Mg11      1.0  0.19453  0.52097  0.97655  1.0000
  Mg  Mg12      1.0  0.13285  0.44935  0.31907  1.0000
  C  Sn25      1.0  0.43530  0.96033  0.20746  1.0000
  C   C289      1.0  0.45844  0.96929  0.12524  1.0000
  C  Sn26      1.0  0.45624  0.95647  0.00236  1.0000
  C  Sn27      1.0  0.43038  0.93445  0.96075  1.0000
  C   C290      1.0  0.40725  0.92529  0.04293  1.0000
  C  Sn28      1.0  0.40943  0.93810  0.16585  1.0000
  O  Te25      1.0  0.43798  0.97346  0.32989  1.0000
  O  Te26      1.0  0.47968  0.96600  0.92191  1.0000
  O  Te27      1.0  0.42772  0.92133  0.83820  1.0000
  O  Te28      1.0  0.38602  0.92880  0.24626  1.0000
  Mg  Mg13      1.0  0.46557  0.94149  0.76379  1.0000
  Mg  Mg14      1.0  0.40010  0.95331  0.40436  1.0000
  C  Sn29      1.0  0.69580  0.52947  0.28021  1.0000
  C   C291      1.0  0.70348  0.51615  0.18556  1.0000
  C  Sn30      1.0  0.68904  0.50692  0.06520  1.0000
  C  Sn31      1.0  0.66648  0.51111  0.03884  1.0000
  C   C292      1.0  0.65882  0.52443  0.13344  1.0000
  C  Sn32      1.0  0.67323  0.53365  0.25385  1.0000
  O  Te29      1.0  0.71052  0.53852  0.39985  1.0000
  O  Te30      1.0  0.69710  0.49387  0.97214  1.0000
  O  Te31      1.0  0.65176  0.50226  0.91908  1.0000
  O  Te32      1.0  0.66519  0.54692  0.34686  1.0000
  Mg  Mg15      1.0  0.67061  0.48529  0.82372  1.0000
  Mg  Mg16      1.0  0.69168  0.55552  0.49527  1.0000
  C  Sn33      1.0  0.58492  0.04641  0.65040  1.0000
  C   C293      1.0  0.59227  0.06878  0.56489  1.0000
  C  Sn34      1.0  0.57199  0.07132  0.49547  1.0000
  C  Sn35      1.0  0.54376  0.05110  0.51190  1.0000
  C   C294      1.0  0.53641  0.02875  0.59738  1.0000
  C  Sn36      1.0  0.55669  0.02618  0.66683  1.0000
  O  Te33      1.0  0.60554  0.04428  0.71881  1.0000
  O  Te34      1.0  0.57985  0.09386  0.41051  1.0000
  O  Te35      1.0  0.52313  0.05324  0.44340  1.0000
  O  Te36      1.0  0.54884  0.00366  0.75175  1.0000
  Mg  Mg17      1.0  0.54417  0.08768  0.33915  1.0000
  Mg  Mg18      1.0  0.58450  0.00983  0.82322  1.0000
  C  Sn37      1.0  0.66276  0.49747  0.57671  1.0000
  C   C295      1.0  0.65630  0.51307  0.66315  1.0000
  C  Sn38      1.0  0.67694  0.53428  0.73944  1.0000
  C  Sn39      1.0  0.70462  0.54003  0.72907  1.0000
  C   C296      1.0  0.71108  0.52444  0.64266  1.0000
  C  Sn40      1.0  0.69045  0.50322  0.56633  1.0000
  O  Te37      1.0  0.64180  0.47636  0.50138  1.0000
  O  Te38      1.0  0.66997  0.54959  0.82520  1.0000
  O  Te39      1.0  0.72559  0.56116  0.80450  1.0000
  O  Te40      1.0  0.69741  0.48792  0.48061  1.0000
  Mg  Mg19      1.0  0.70581  0.57625  0.90708  1.0000
  Mg  Mg20      1.0  0.66158  0.46126  0.39863  1.0000
  C  Sn41      1.0  0.68306  0.14521  0.07467  1.0000
  C   C297      1.0  0.66069  0.13880  0.15889  1.0000
  C  Sn42      1.0  0.66009  0.15941  0.23541  1.0000
  C  Sn43      1.0  0.68229  0.18700  0.22755  1.0000
  C   C298      1.0  0.70464  0.19340  0.14336  1.0000
  C  Sn44      1.0  0.70526  0.17280  0.06681  1.0000
  O  Te41      1.0  0.68323  0.12450  0.99907  1.0000
  O  Te42      1.0  0.63751  0.15250  0.31891  1.0000
  O  Te43      1.0  0.68211  0.20793  0.30325  1.0000
  O  Te44      1.0  0.72782  0.17992  0.98333  1.0000
  Mg  Mg21      1.0  0.64678  0.18825  0.40218  1.0000
  Mg  Mg22      1.0  0.71856  0.14419  0.89998  1.0000
  C  Sn45      1.0  0.46177  0.41522  0.15160  1.0000
  C   C299      1.0  0.47665  0.40783  0.06518  1.0000
  C  Sn46      1.0  0.49931  0.42829  0.99462  1.0000
  C  Sn47      1.0  0.50728  0.45629  0.01083  1.0000
  C   C300      1.0  0.49241  0.46368  0.09723  1.0000
  C  Sn48      1.0  0.46974  0.44345  0.16782  1.0000
  O  Te45      1.0  0.43919  0.39464  0.22114  1.0000
  O  Te46      1.0  0.51386  0.42039  0.90876  1.0000
  O  Te47      1.0  0.52989  0.47710  0.94120  1.0000
  O  Te48      1.0  0.45520  0.45133  0.25365  1.0000
  Mg  Mg23      1.0  0.54316  0.45602  0.83601  1.0000
  Mg  Mg24      1.0  0.42591  0.41572  0.32650  1.0000
  C  Sn49      1.0  0.95691  0.41663  0.51710  1.0000
  C   C301      1.0  0.93232  0.40729  0.58834  1.0000
  C  Sn50      1.0  0.92775  0.42574  0.66318  1.0000
  C  Sn51      1.0  0.94819  0.45413  0.66683  1.0000
  C   C302      1.0  0.97277  0.46345  0.59561  1.0000
  C  Sn52      1.0  0.97735  0.44501  0.52075  1.0000
  O  Te49      1.0  0.96103  0.39782  0.44295  1.0000
  O  Te50      1.0  0.90301  0.41592  0.73361  1.0000
  O  Te51      1.0  0.94405  0.47294  0.74108  1.0000
  O  Te52      1.0  0.00208  0.45483  0.45034  1.0000
  Mg  Mg25      1.0  0.90699  0.44959  0.82013  1.0000
  Mg  Mg26      1.0  0.99811  0.42118  0.36374  1.0000
  C  Sn53      1.0  0.14506  0.68865  0.73263  1.0000
  C   C303      1.0  0.13551  0.66509  0.65277  1.0000
  C  Sn54      1.0  0.15386  0.66127  0.57317  1.0000
  C  Sn55      1.0  0.18236  0.68140  0.57345  1.0000
  C   C304      1.0  0.19190  0.70494  0.65328  1.0000
  C  Sn56      1.0  0.17356  0.70878  0.73290  1.0000
  O  Te53      1.0  0.12634  0.69205  0.81142  1.0000
  O  Te54      1.0  0.14382  0.63755  0.49414  1.0000
  O  Te55      1.0  0.20108  0.67798  0.49456  1.0000
  O  Te56      1.0  0.18358  0.73248  0.81191  1.0000
  Mg  Mg27      1.0  0.17744  0.64224  0.40398  1.0000
  Mg  Mg28      1.0  0.14999  0.72781  0.90216  1.0000
  C  Sn57      1.0  0.30407  0.47050  0.27951  1.0000
  C   C305      1.0  0.29649  0.48388  0.18500  1.0000
  C  Sn58      1.0  0.31104  0.49318  0.06500  1.0000
  C  Sn59      1.0  0.33362  0.48900  0.03887  1.0000
  C   C306      1.0  0.34119  0.47562  0.13333  1.0000
  C  Sn60      1.0  0.32666  0.46632  0.25338  1.0000
  O  Te57      1.0  0.28923  0.46138  0.39879  1.0000
  O  Te58      1.0  0.30308  0.50673  0.97206  1.0000
  O  Te59      1.0  0.34846  0.49835  0.91947  1.0000
  O  Te60      1.0  0.33460  0.45300  0.34627  1.0000
  Mg  Mg29      1.0  0.32971  0.51539  0.82416  1.0000
  Mg  Mg30      1.0  0.30798  0.44431  0.49417  1.0000
  C  Sn61      1.0  0.06987  0.50897  0.50305  1.0000
  C   C307      1.0  0.07742  0.49242  0.57554  1.0000
  C  Sn62      1.0  0.05789  0.47049  0.65252  1.0000
  C  Sn63      1.0  0.03022  0.46497  0.65707  1.0000
  C   C308      1.0  0.02268  0.48151  0.58459  1.0000
  C  Sn64      1.0  0.04220  0.50345  0.50760  1.0000
  O  Te61      1.0  0.08973  0.53078  0.42676  1.0000
  O  Te62      1.0  0.06593  0.45424  0.72418  1.0000
  O  Te63      1.0  0.01035  0.44314  0.73344  1.0000
  O  Te64      1.0  0.03417  0.51968  0.43595  1.0000
  Mg  Mg31      1.0  0.03136  0.42688  0.81352  1.0000
  Mg  Mg32      1.0  0.06872  0.54704  0.34653  1.0000
  C  Sn65      1.0  0.54031  0.95685  0.51731  1.0000
  C   C309      1.0  0.52511  0.93233  0.58901  1.0000
  C  Sn66      1.0  0.50215  0.92784  0.66403  1.0000
  C  Sn67      1.0  0.49419  0.94827  0.66740  1.0000
  C   C310      1.0  0.50938  0.97277  0.59571  1.0000
  C  Sn68      1.0  0.53235  0.97729  0.52067  1.0000
  O  Te65      1.0  0.56319  0.96091  0.44298  1.0000
  O  Te66      1.0  0.48729  0.90316  0.73492  1.0000
  O  Te67      1.0  0.47129  0.94419  0.74181  1.0000
  O  Te68      1.0  0.04710  0.00194  0.44979  1.0000
  Mg  Mg33      1.0  0.45766  0.90722  0.82152  1.0000
  Mg  Mg34      1.0  0.57683  0.99790  0.36312  1.0000
  C  Sn69      1.0  0.31621  0.48990  0.52497  1.0000
  C   C311      1.0  0.29367  0.47781  0.61209  1.0000
  C  Sn70      1.0  0.29588  0.46733  0.73520  1.0000
  C  Sn71      1.0  0.32116  0.46898  0.77205  1.0000
  C   C312      1.0  0.34368  0.48106  0.68497  1.0000
  C  Sn72      1.0  0.34148  0.49155  0.56182  1.0000
  O  Te69      1.0  0.31352  0.50025  0.40240  1.0000
  O  Te70      1.0  0.27306  0.45533  0.82060  1.0000
  O  Te71      1.0  0.32382  0.45862  0.89473  1.0000
  O  Te72      1.0  0.36429  0.50355  0.47646  1.0000
  Mg  Mg35      1.0  0.28692  0.44418  0.97684  1.0000
  Mg  Mg36      1.0  0.35046  0.51471  0.32024  1.0000
  C  Sn73      1.0  0.06973  0.50853  0.00259  1.0000
  C   C313      1.0  0.07737  0.49211  0.07557  1.0000
  C  Sn74      1.0  0.05790  0.47026  0.15318  1.0000
  C  Sn75      1.0  0.03023  0.46470  0.15788  1.0000
  C   C314      1.0  0.02260  0.48111  0.08491  1.0000
  C  Sn76      1.0  0.04205  0.50297  0.00729  1.0000
  O  Te73      1.0  0.08953  0.53049  0.92568  1.0000
  O  Te74      1.0  0.06603  0.45413  0.22531  1.0000
  O  Te75      1.0  0.01042  0.44294  0.23488  1.0000
  O  Te76      1.0  0.03394  0.51931  0.93517  1.0000
  Mg  Mg37      1.0  0.03153  0.42684  0.31543  1.0000
  Mg  Mg38      1.0  0.06842  0.54660  0.84497  1.0000
  C  Sn77      1.0  0.47043  0.16643  0.27969  1.0000
  C   C315      1.0  0.48387  0.18738  0.18516  1.0000
  C  Sn78      1.0  0.49322  0.18211  0.06530  1.0000
  C  Sn79      1.0  0.48904  0.15534  0.03932  1.0000
  C   C316      1.0  0.47560  0.13441  0.13380  1.0000
  C  Sn80      1.0  0.46625  0.13966  0.25372  1.0000
  O  Te77      1.0  0.46126  0.17216  0.39884  1.0000
  O  Te78      1.0  0.50661  0.20361  0.97234  1.0000
  O  Te79      1.0  0.49823  0.14984  0.92006  1.0000
  O  Te80      1.0  0.45286  0.11840  0.34662  1.0000
  Mg  Mg39      1.0  0.51533  0.18562  0.82466  1.0000
  Mg  Mg40      1.0  0.44412  0.13636  0.49430  1.0000
  C  Sn81      1.0  0.50521  0.68353  0.77823  1.0000
  C   C317      1.0  0.51919  0.70505  0.68703  1.0000
  C  Sn82      1.0  0.52894  0.70043  0.56677  1.0000
  C  Sn83      1.0  0.52461  0.67374  0.53700  1.0000
  C   C318      1.0  0.51063  0.65224  0.62815  1.0000
  C  Sn84      1.0  0.50087  0.65684  0.74845  1.0000
  O  Te81      1.0  0.49564  0.68861  0.89784  1.0000
  O  Te82      1.0  0.54287  0.72227  0.47719  1.0000
  O  Te83      1.0  0.53419  0.66867  0.41727  1.0000
  O  Te84      1.0  0.48695  0.63501  0.83799  1.0000
  Mg  Mg41      1.0  0.55198  0.70506  0.32735  1.0000
  Mg  Mg42      1.0  0.47782  0.65220  0.98781  1.0000
  C  Sn85      1.0  0.58472  0.04636  0.15101  1.0000
  C   C319      1.0  0.59209  0.06866  0.06505  1.0000
  C  Sn86      1.0  0.57183  0.07137  0.99520  1.0000
  C  Sn87      1.0  0.54359  0.05094  0.01167  1.0000
  C   C320      1.0  0.53623  0.02866  0.09760  1.0000
  C  Sn88      1.0  0.55649  0.02614  0.16748  1.0000
  O  Te85      1.0  0.60533  0.04428  0.21983  1.0000
  O  Te86      1.0  0.57970  0.09385  0.90979  1.0000
  O  Te87      1.0  0.52298  0.05325  0.94275  1.0000
  O  Te88      1.0  0.54862  0.00369  0.25285  1.0000
  Mg  Mg43      1.0  0.54404  0.08762  0.83797  1.0000
  Mg  Mg44      1.0  0.58427  0.00991  0.32478  1.0000
  C  Sn89      1.0  0.50326  0.55127  0.45793  1.0000
  C   C321      1.0  0.51590  0.54297  0.55318  1.0000
  C  Sn90      1.0  0.52747  0.55870  0.66840  1.0000
  C  Sn91      1.0  0.52636  0.58324  0.68890  1.0000
  C   C322      1.0  0.51372  0.59152  0.59370  1.0000
  C  Sn92      1.0  0.50215  0.57580  0.47843  1.0000
  O  Te89      1.0  0.49183  0.53521  0.34349  1.0000
  O  Te90      1.0  0.54000  0.54999  0.76218  1.0000
  O  Te91      1.0  0.53781  0.59929  0.80346  1.0000
  O  Te92      1.0  0.48962  0.58450  0.38470  1.0000
  Mg  Mg45      1.0  0.55262  0.57885  0.90214  1.0000
  Mg  Mg46      1.0  0.47698  0.55565  0.24475  1.0000
  C  Sn93      1.0  0.85454  0.53768  0.57700  1.0000
  C   C323      1.0  0.86108  0.52176  0.66057  1.0000
  C  Sn94      1.0  0.84056  0.50046  0.73684  1.0000
  C  Sn95      1.0  0.81292  0.49496  0.72937  1.0000
  C   C324      1.0  0.80640  0.51087  0.64582  1.0000
  C  Sn96      1.0  0.82691  0.53218  0.56953  1.0000
  O  Te93      1.0  0.87539  0.55886  0.50164  1.0000
  O  Te94      1.0  0.84759  0.48483  0.81970  1.0000
  O  Te95      1.0  0.79207  0.47376  0.80483  1.0000
  O  Te96      1.0  0.81988  0.54780  0.48669  1.0000
  Mg  Mg47      1.0  0.81191  0.45819  0.90285  1.0000
  Mg  Mg48      1.0  0.85555  0.57443  0.40345  1.0000
