data_image0
_chemical_formula_structural       H168C276N24O48C2Sn2C2HTe2HMgC2Sn2C2HTe2HMgC2Sn2C2HTe2HMgC2Sn2C2HTe2HMgC2Sn2C2HTe2HMgC2Sn2C2HTe2HMgC2Sn2C2HTe2HMgC2Sn2C2HTe2HMgC2Sn2C2HTe2HMgC2Sn2C2HTe2HMgC2Sn2C2HTe2HMgC2Sn2C2HTe2HMgC2Sn2C2HTe2HMgC2Sn2C2HTe2HMgC2Sn2C2HTe2HMgC2Sn2C2HTe2HMgC2Sn2C2HTe2HMgC2Sn2C2HTe2HMgC2Sn2C2HTe2HMgC2Sn2C2HTe2HMgC2Sn2C2HTe2HMgC2Sn2C2HTe2HMgC2Sn2C2HTe2HMgC2Sn2C2HTe2HMg
_chemical_formula_sum              "H216 C372 N24 O48 Sn48 Te48 Mg24"
_cell_length_a       55.9021
_cell_length_b       55.9089
_cell_length_c       10.0076
_cell_angle_alpha    90.0692
_cell_angle_beta     89.9664
_cell_angle_gamma    120.003

_symmetry_space_group_name_H-M    'P1'
_space_group_IT_number       1

loop_
  _space_group_symop_operation_xyz
  'x, y, z'

loop_
  _atom_site_type_symbol
  _atom_site_label
  _atom_site_symmetry_multiplicity
  _atom_site_fract_x
  _atom_site_fract_y
  _atom_site_fract_z
  _atom_site_occupancy
  H   H1        1.0  0.48512  0.95365  0.25874  1.0000
  H   H2        1.0  0.53145  0.48519  0.25823  1.0000
  H   H3        1.0  0.51453  0.04614  0.25967  1.0000
  H   H4        1.0  0.54445  0.98966  0.94199  1.0000
  H   H5        1.0  0.55483  0.54457  0.94193  1.0000
  H   H6        1.0  0.45555  0.01030  0.94135  1.0000
  H   H7        1.0  0.54577  0.94616  0.91950  1.0000
  H   H8        1.0  0.59963  0.54584  0.91950  1.0000
  H   H9        1.0  0.45433  0.05385  0.91900  1.0000
  H   H10       1.0  0.48847  0.91116  0.24648  1.0000
  H   H11       1.0  0.57727  0.48848  0.24602  1.0000
  H   H12       1.0  0.51128  0.08869  0.24752  1.0000
  H   H13       1.0  0.45776  0.44164  0.25181  1.0000
  H   H14       1.0  0.98388  0.54228  0.25194  1.0000
  H   H15       1.0  0.44144  0.98396  0.25126  1.0000
  H   H16       1.0  0.45653  0.39671  0.23717  1.0000
  H   H17       1.0  0.94025  0.54363  0.23699  1.0000
  H   H18       1.0  0.39649  0.94030  0.23651  1.0000
  H   H19       1.0  0.51218  0.42697  0.90231  1.0000
  H   H20       1.0  0.91473  0.48765  0.90313  1.0000
  H   H21       1.0  0.42695  0.91468  0.90303  1.0000
  H   H22       1.0  0.51520  0.47263  0.92575  1.0000
  H   H23       1.0  0.95730  0.48453  0.92689  1.0000
  H   H24       1.0  0.47262  0.95727  0.92667  1.0000
  H   H25       1.0  0.32364  0.45270  0.33196  1.0000
  H   H26       1.0  0.54726  0.87101  0.33212  1.0000
  H   H27       1.0  0.87094  0.32347  0.33070  1.0000
  H   H28       1.0  0.28014  0.45425  0.32051  1.0000
  H   H29       1.0  0.54569  0.82594  0.32078  1.0000
  H   H30       1.0  0.82590  0.27997  0.31873  1.0000
  H   H31       1.0  0.31142  0.50804  0.97888  1.0000
  H   H32       1.0  0.49179  0.80326  0.97912  1.0000
  H   H33       1.0  0.80332  0.31138  0.97785  1.0000
  H   H34       1.0  0.35444  0.50522  0.98655  1.0000
  H   H35       1.0  0.49461  0.84909  0.98696  1.0000
  H   H36       1.0  0.84914  0.35438  0.98587  1.0000
  H   H37       1.0  0.49587  0.38406  0.25367  1.0000
  H   H38       1.0  0.61594  0.11172  0.25375  1.0000
  H   H39       1.0  0.88816  0.50401  0.25389  1.0000
  H   H40       1.0  0.50395  0.61587  0.25329  1.0000
  H   H41       1.0  0.38396  0.88811  0.25340  1.0000
  H   H42       1.0  0.11176  0.49584  0.25361  1.0000
  H   H43       1.0  0.51340  0.35429  0.32490  1.0000
  H   H44       1.0  0.64564  0.15916  0.32414  1.0000
  H   H45       1.0  0.35430  0.84066  0.32361  1.0000
  H   H46       1.0  0.51109  0.30879  0.31913  1.0000
  H   H47       1.0  0.69110  0.20237  0.31796  1.0000
  H   H48       1.0  0.30876  0.79756  0.31838  1.0000
  H   H49       1.0  0.45594  0.28477  0.98143  1.0000
  H   H50       1.0  0.71514  0.17094  0.98122  1.0000
  H   H51       1.0  0.28454  0.82892  0.98266  1.0000
  H   H52       1.0  0.45969  0.33112  0.98318  1.0000
  H   H53       1.0  0.66883  0.12828  0.98347  1.0000
  H   H54       1.0  0.33095  0.87143  0.98369  1.0000
  H   H55       1.0  0.52584  0.28518  0.13153  1.0000
  H   H56       1.0  0.71471  0.24065  0.13160  1.0000
  H   H57       1.0  0.75933  0.47417  0.12995  1.0000
  H   H58       1.0  0.47413  0.71472  0.13155  1.0000
  H   H59       1.0  0.28511  0.75948  0.12919  1.0000
  H   H60       1.0  0.24062  0.52582  0.12998  1.0000
  H   H61       1.0  0.24116  0.43800  0.15888  1.0000
  H   H62       1.0  0.56190  0.80323  0.15864  1.0000
  H   H63       1.0  0.19659  0.75856  0.16118  1.0000
  H   H64       1.0  0.75882  0.56198  0.16270  1.0000
  H   H65       1.0  0.43795  0.19672  0.15534  1.0000
  H   H66       1.0  0.80310  0.24099  0.15251  1.0000
  H   H67       1.0  0.84290  0.59003  0.27236  1.0000
  H   H68       1.0  0.40906  0.25215  0.26078  1.0000
  H   H69       1.0  0.74763  0.15678  0.25844  1.0000
  H   H70       1.0  0.15677  0.40970  0.26440  1.0000
  H   H71       1.0  0.59041  0.74783  0.26906  1.0000
  H   H72       1.0  0.25249  0.84312  0.26576  1.0000
  H   H73       1.0  0.68894  0.47660  0.24295  1.0000
  H   H74       1.0  0.52349  0.21256  0.24377  1.0000
  H   H75       1.0  0.78752  0.31093  0.24336  1.0000
  H   H76       1.0  0.31089  0.52351  0.24385  1.0000
  H   H77       1.0  0.47616  0.78733  0.24333  1.0000
  H   H78       1.0  0.21238  0.68890  0.24176  1.0000
  H   H79       1.0  0.37224  0.47221  0.26632  1.0000
  H   H80       1.0  0.52775  0.90004  0.26643  1.0000
  H   H81       1.0  0.09994  0.62763  0.26710  1.0000
  H   H82       1.0  0.62763  0.52762  0.26657  1.0000
  H   H83       1.0  0.47213  0.09994  0.26681  1.0000
  H   H84       1.0  0.90003  0.37210  0.26520  1.0000
  H   H85       1.0  0.46850  0.51477  0.75879  1.0000
  H   H86       1.0  0.48551  0.95396  0.75985  1.0000
  H   H87       1.0  0.51472  0.04628  0.75951  1.0000
  H   H88       1.0  0.44517  0.45554  0.44122  1.0000
  H   H89       1.0  0.54432  0.98956  0.44073  1.0000
  H   H90       1.0  0.45565  0.01039  0.44155  1.0000
  H   H91       1.0  0.40038  0.45429  0.41909  1.0000
  H   H92       1.0  0.54556  0.94601  0.41864  1.0000
  H   H93       1.0  0.45438  0.05391  0.41937  1.0000
  H   H94       1.0  0.42268  0.51148  0.74694  1.0000
  H   H95       1.0  0.48879  0.91142  0.74789  1.0000
  H   H96       1.0  0.51140  0.08879  0.74759  1.0000
  H   H97       1.0  0.44155  0.98405  0.75092  1.0000
  H   H98       1.0  0.39662  0.94038  0.73616  1.0000
  H   H99       1.0  0.42716  0.91475  0.40296  1.0000
  H   H100      1.0  0.47281  0.95736  0.42676  1.0000
  H   H101      1.0  0.54740  0.87094  0.83122  1.0000
  H   H102      1.0  0.12879  0.67672  0.82967  1.0000
  H   H103      1.0  0.67663  0.54790  0.83027  1.0000
  H   H104      1.0  0.45261  0.12910  0.83208  1.0000
  H   H105      1.0  0.87138  0.32358  0.82981  1.0000
  H   H106      1.0  0.54570  0.82581  0.81914  1.0000
  H   H107      1.0  0.17392  0.72013  0.81856  1.0000
  H   H108      1.0  0.72006  0.54620  0.81942  1.0000
  H   H109      1.0  0.45432  0.17422  0.82097  1.0000
  H   H110      1.0  0.82632  0.28008  0.81882  1.0000
  H   H111      1.0  0.49159  0.80332  0.47845  1.0000
  H   H112      1.0  0.19702  0.68817  0.48105  1.0000
  H   H113      1.0  0.68833  0.49133  0.48121  1.0000
  H   H114      1.0  0.50840  0.19680  0.48018  1.0000
  H   H115      1.0  0.80312  0.31165  0.48070  1.0000
  H   H116      1.0  0.49454  0.84921  0.48693  1.0000
  H   H117      1.0  0.15110  0.64523  0.48845  1.0000
  H   H118      1.0  0.64539  0.49431  0.48829  1.0000
  H   H119      1.0  0.50546  0.15091  0.48766  1.0000
  H   H120      1.0  0.84898  0.35465  0.48778  1.0000
  H   H121      1.0  0.49585  0.38414  0.75320  1.0000
  H   H122      1.0  0.61607  0.11186  0.75375  1.0000
  H   H123      1.0  0.88817  0.50392  0.75367  1.0000
  H   H124      1.0  0.50435  0.61607  0.75312  1.0000
  H   H125      1.0  0.38410  0.88827  0.75336  1.0000
  H   H126      1.0  0.11175  0.49592  0.75358  1.0000
  H   H127      1.0  0.51348  0.35447  0.82440  1.0000
  H   H128      1.0  0.48659  0.64565  0.82407  1.0000
  H   H129      1.0  0.15909  0.51370  0.82462  1.0000
  H   H130      1.0  0.51116  0.30896  0.81912  1.0000
  H   H131      1.0  0.48869  0.69106  0.81861  1.0000
  H   H132      1.0  0.20232  0.51147  0.81971  1.0000
  H   H133      1.0  0.45576  0.28468  0.48242  1.0000
  H   H134      1.0  0.54420  0.71539  0.48235  1.0000
  H   H135      1.0  0.17123  0.45589  0.48344  1.0000
  H   H136      1.0  0.45951  0.33104  0.48355  1.0000
  H   H137      1.0  0.54070  0.66915  0.48362  1.0000
  H   H138      1.0  0.12855  0.45951  0.48415  1.0000
  H   H139      1.0  0.52585  0.28544  0.63311  1.0000
  H   H140      1.0  0.71485  0.24070  0.63456  1.0000
  H   H141      1.0  0.75897  0.47359  0.63710  1.0000
  H   H142      1.0  0.47391  0.71459  0.63253  1.0000
  H   H143      1.0  0.28541  0.75929  0.63589  1.0000
  H   H144      1.0  0.24078  0.52606  0.63506  1.0000
  H   H145      1.0  0.24105  0.43798  0.65567  1.0000
  H   H146      1.0  0.56168  0.80317  0.65460  1.0000
  H   H147      1.0  0.19684  0.75858  0.65421  1.0000
  H   H148      1.0  0.75879  0.56173  0.65358  1.0000
  H   H149      1.0  0.43824  0.19680  0.65697  1.0000
  H   H150      1.0  0.80331  0.24129  0.65576  1.0000
  H   H151      1.0  0.84257  0.59056  0.76357  1.0000
  H   H152      1.0  0.40904  0.25196  0.76269  1.0000
  H   H153      1.0  0.74817  0.15716  0.76282  1.0000
  H   H154      1.0  0.15725  0.40962  0.76714  1.0000
  H   H155      1.0  0.59097  0.74825  0.76064  1.0000
  H   H156      1.0  0.25175  0.84275  0.76075  1.0000
  H   H157      1.0  0.68875  0.47699  0.74525  1.0000
  H   H158      1.0  0.52380  0.21241  0.74103  1.0000
  H   H159      1.0  0.78769  0.31083  0.74756  1.0000
  H   H160      1.0  0.31091  0.52317  0.74782  1.0000
  H   H161      1.0  0.47665  0.78797  0.74029  1.0000
  H   H162      1.0  0.21180  0.68882  0.74375  1.0000
  H   H163      1.0  0.37216  0.47209  0.76649  1.0000
  H   H164      1.0  0.52780  0.90003  0.76663  1.0000
  H   H165      1.0  0.09990  0.62798  0.76600  1.0000
  H   H166      1.0  0.62790  0.52806  0.76597  1.0000
  H   H167      1.0  0.47214  0.10000  0.76682  1.0000
  H   H168      1.0  0.90021  0.37224  0.76544  1.0000
  C   C1        1.0  0.51443  0.97479  0.10134  1.0000
  C   C2        1.0  0.53966  0.51453  0.10105  1.0000
  C   C3        1.0  0.48538  0.02509  0.10150  1.0000
  C   C4        1.0  0.53207  0.97239  0.00824  1.0000
  C   C5        1.0  0.55970  0.53217  0.00810  1.0000
  C   C6        1.0  0.46787  0.02754  0.00799  1.0000
  C   C7        1.0  0.53294  0.94808  0.99555  1.0000
  C   C8        1.0  0.58486  0.53300  0.99545  1.0000
  C   C9        1.0  0.46706  0.05187  0.99538  1.0000
  C   C10       1.0  0.49888  0.95229  0.18652  1.0000
  C   C11       1.0  0.54659  0.49895  0.18612  1.0000
  C   C12       1.0  0.50087  0.04757  0.18713  1.0000
  C   C13       1.0  0.47008  0.43864  0.17653  1.0000
  C   C14       1.0  0.96855  0.52991  0.17685  1.0000
  C   C15       1.0  0.43849  0.96860  0.17630  1.0000
  C   C16       1.0  0.46930  0.41337  0.16863  1.0000
  C   C17       1.0  0.94409  0.53076  0.16876  1.0000
  C   C18       1.0  0.41319  0.94412  0.16830  1.0000
  C   C19       1.0  0.50079  0.43046  0.98064  1.0000
  C   C20       1.0  0.92963  0.49909  0.98133  1.0000
  C   C21       1.0  0.43040  0.92960  0.98113  1.0000
  C   C22       1.0  0.50227  0.45589  0.99322  1.0000
  C   C23       1.0  0.95354  0.49755  0.99409  1.0000
  C   C24       1.0  0.45585  0.95354  0.99382  1.0000
  C   C25       1.0  0.36733  0.47734  0.16766  1.0000
  C   C26       1.0  0.52259  0.88997  0.16779  1.0000
  C   C27       1.0  0.10989  0.63256  0.16822  1.0000
  C   C28       1.0  0.63260  0.52260  0.16774  1.0000
  C   C29       1.0  0.47730  0.10997  0.16818  1.0000
  C   C30       1.0  0.88998  0.36720  0.16655  1.0000
  C   C31       1.0  0.34181  0.47858  0.15864  1.0000
  C   C32       1.0  0.52132  0.86319  0.15891  1.0000
  C   C33       1.0  0.86321  0.34169  0.15756  1.0000
  C   C34       1.0  0.32070  0.46430  0.25273  1.0000
  C   C35       1.0  0.53563  0.85640  0.25297  1.0000
  C   C36       1.0  0.85638  0.32055  0.25145  1.0000
  C   C37       1.0  0.29624  0.46513  0.24631  1.0000
  C   C38       1.0  0.53477  0.83111  0.24661  1.0000
  C   C39       1.0  0.83110  0.29609  0.24474  1.0000
  C   C40       1.0  0.29254  0.48101  0.14810  1.0000
  C   C41       1.0  0.51883  0.81146  0.14852  1.0000
  C   C42       1.0  0.81149  0.29240  0.14658  1.0000
  C   C43       1.0  0.26669  0.48234  0.14667  1.0000
  C   C44       1.0  0.51754  0.78430  0.14718  1.0000
  C   C45       1.0  0.21553  0.73319  0.14724  1.0000
  C   C46       1.0  0.73330  0.51767  0.14801  1.0000
  C   C47       1.0  0.48232  0.21561  0.14629  1.0000
  C   C48       1.0  0.78429  0.26656  0.14494  1.0000
  C   C49       1.0  0.48898  0.37289  0.15810  1.0000
  C   C50       1.0  0.62709  0.11594  0.15816  1.0000
  C   C51       1.0  0.88390  0.51097  0.15856  1.0000
  C   C52       1.0  0.51091  0.62706  0.15789  1.0000
  C   C53       1.0  0.37278  0.88386  0.15794  1.0000
  C   C54       1.0  0.11603  0.48894  0.15804  1.0000
  C   C55       1.0  0.48672  0.34567  0.15387  1.0000
  C   C56       1.0  0.65428  0.14091  0.15370  1.0000
  C   C57       1.0  0.34558  0.85889  0.15365  1.0000
  C   C58       1.0  0.50115  0.33919  0.24858  1.0000
  C   C59       1.0  0.66074  0.16193  0.24798  1.0000
  C   C60       1.0  0.33915  0.83790  0.24784  1.0000
  C   C61       1.0  0.49985  0.31366  0.24548  1.0000
  C   C62       1.0  0.68624  0.18619  0.24459  1.0000
  C   C63       1.0  0.31359  0.81371  0.24499  1.0000
  C   C64       1.0  0.48313  0.29361  0.15105  1.0000
  C   C65       1.0  0.70627  0.18944  0.15023  1.0000
  C   C66       1.0  0.29347  0.81047  0.15134  1.0000
  C   C67       1.0  0.46847  0.30000  0.05678  1.0000
  C   C68       1.0  0.69992  0.16829  0.05648  1.0000
  C   C69       1.0  0.29983  0.83154  0.05738  1.0000
  C   C70       1.0  0.47051  0.32581  0.05721  1.0000
  C   C71       1.0  0.67414  0.14449  0.05719  1.0000
  C   C72       1.0  0.32566  0.85528  0.05752  1.0000
  C   C73       1.0  0.50636  0.26585  0.13993  1.0000
  C   C74       1.0  0.73403  0.24045  0.13961  1.0000
  C   C75       1.0  0.75948  0.49363  0.14000  1.0000
  C   C76       1.0  0.49358  0.73407  0.14054  1.0000
  C   C77       1.0  0.26574  0.75954  0.13902  1.0000
  C   C78       1.0  0.24049  0.50636  0.13924  1.0000
  C   C79       1.0  0.45676  0.24077  0.15752  1.0000
  C   C80       1.0  0.75907  0.21587  0.15566  1.0000
  C   C81       1.0  0.78397  0.54313  0.16341  1.0000
  C   C82       1.0  0.54314  0.75922  0.16045  1.0000
  C   C83       1.0  0.24056  0.78390  0.16156  1.0000
  C   C84       1.0  0.21600  0.45683  0.16005  1.0000
  C   C85       1.0  0.24140  0.45757  0.15486  1.0000
  C   C86       1.0  0.54237  0.78386  0.15512  1.0000
  C   C87       1.0  0.21596  0.75842  0.15646  1.0000
  C   C88       1.0  0.75858  0.54242  0.15783  1.0000
  C   C89       1.0  0.45750  0.21610  0.15297  1.0000
  C   C90       1.0  0.78376  0.24123  0.15071  1.0000
  C   C91       1.0  0.42874  0.23751  0.17392  1.0000
  C   C92       1.0  0.76224  0.19106  0.17108  1.0000
  C   C93       1.0  0.80847  0.57106  0.18563  1.0000
  C   C94       1.0  0.57111  0.76256  0.17974  1.0000
  C   C95       1.0  0.23694  0.80830  0.18324  1.0000
  C   C96       1.0  0.19147  0.42887  0.18027  1.0000
  C   C97       1.0  0.29077  0.53592  0.13437  1.0000
  C   C98       1.0  0.46394  0.75468  0.13476  1.0000
  C   C99       1.0  0.24516  0.70925  0.13423  1.0000
  C   C100      1.0  0.70920  0.46411  0.13459  1.0000
  C   C101      1.0  0.53592  0.24516  0.13488  1.0000
  C   C102      1.0  0.75488  0.29073  0.13443  1.0000
  C   C103      1.0  0.48784  0.48753  0.10109  1.0000
  C   C104      1.0  0.51235  0.00024  0.10143  1.0000
  C   C105      1.0  0.99961  0.51203  0.10178  1.0000
  C   C106      1.0  0.51212  0.51244  0.10108  1.0000
  C   C107      1.0  0.48745  0.99964  0.10147  1.0000
  C   C108      1.0  0.00024  0.48775  0.10152  1.0000
  C   C109      1.0  0.48706  0.46063  0.09115  1.0000
  C   C110      1.0  0.97351  0.51282  0.09183  1.0000
  C   C111      1.0  0.46054  0.97354  0.09139  1.0000
  C   C112      1.0  0.48167  0.26641  0.15087  1.0000
  C   C113      1.0  0.73345  0.21518  0.14964  1.0000
  C   C114      1.0  0.78472  0.51827  0.15314  1.0000
  C   C115      1.0  0.51828  0.73356  0.15241  1.0000
  C   C116      1.0  0.26623  0.78475  0.15160  1.0000
  C   C117      1.0  0.21523  0.48170  0.15113  1.0000
  C   C118      1.0  0.50727  0.24126  0.13976  1.0000
  C   C119      1.0  0.75867  0.26591  0.13897  1.0000
  C   C120      1.0  0.73399  0.49274  0.13983  1.0000
  C   C121      1.0  0.49263  0.75864  0.14017  1.0000
  C   C122      1.0  0.24120  0.73398  0.13911  1.0000
  C   C123      1.0  0.26599  0.50727  0.13917  1.0000
  C   C124      1.0  0.51745  0.92577  0.08223  1.0000
  C   C125      1.0  0.59167  0.51749  0.08201  1.0000
  C   C126      1.0  0.48246  0.07415  0.08256  1.0000
  C   C127      1.0  0.31388  0.49548  0.05462  1.0000
  C   C128      1.0  0.50433  0.81829  0.05501  1.0000
  C   C129      1.0  0.81834  0.31380  0.05350  1.0000
  C   C130      1.0  0.33802  0.49412  0.05900  1.0000
  C   C131      1.0  0.50572  0.84380  0.05939  1.0000
  C   C132      1.0  0.84385  0.33794  0.05808  1.0000
  C   C133      1.0  0.48477  0.40898  0.07056  1.0000
  C   C134      1.0  0.92422  0.51523  0.07091  1.0000
  C   C135      1.0  0.40886  0.92421  0.07060  1.0000
  C   C136      1.0  0.50061  0.92833  0.17930  1.0000
  C   C137      1.0  0.57226  0.50065  0.17892  1.0000
  C   C138      1.0  0.49919  0.07154  0.17998  1.0000
  C   C139      1.0  0.46033  0.48551  0.60093  1.0000
  C   C140      1.0  0.51456  0.97488  0.60120  1.0000
  C   C141      1.0  0.48552  0.02519  0.60151  1.0000
  C   C142      1.0  0.44030  0.46792  0.50773  1.0000
  C   C143      1.0  0.53204  0.97237  0.50756  1.0000
  C   C144      1.0  0.46797  0.02764  0.50817  1.0000
  C   C145      1.0  0.41513  0.46708  0.49526  1.0000
  C   C146      1.0  0.53286  0.94803  0.49508  1.0000
  C   C147      1.0  0.46713  0.05195  0.49567  1.0000
  C   C148      1.0  0.45337  0.50104  0.68646  1.0000
  C   C149      1.0  0.49913  0.95248  0.68713  1.0000
  C   C150      1.0  0.50101  0.04768  0.68712  1.0000
  C   C151      1.0  0.43861  0.96868  0.67604  1.0000
  C   C152      1.0  0.41333  0.94420  0.66800  1.0000
  C   C153      1.0  0.43058  0.92968  0.48101  1.0000
  C   C154      1.0  0.45602  0.95362  0.49378  1.0000
  C   C155      1.0  0.36730  0.47732  0.66800  1.0000
  C   C156      1.0  0.52261  0.88998  0.66794  1.0000
  C   C157      1.0  0.11002  0.63272  0.66755  1.0000
  C   C158      1.0  0.63272  0.52275  0.66751  1.0000
  C   C159      1.0  0.47739  0.11007  0.66828  1.0000
  C   C160      1.0  0.89008  0.36740  0.66701  1.0000
  C   C161      1.0  0.52132  0.86320  0.65866  1.0000
  C   C162      1.0  0.13681  0.65820  0.65855  1.0000
  C   C163      1.0  0.65823  0.52148  0.65870  1.0000
  C   C164      1.0  0.47868  0.13686  0.65941  1.0000
  C   C165      1.0  0.86331  0.34188  0.65824  1.0000
  C   C166      1.0  0.53567  0.85635  0.75218  1.0000
  C   C167      1.0  0.14350  0.67950  0.75148  1.0000
  C   C168      1.0  0.67948  0.53603  0.75189  1.0000
  C   C169      1.0  0.46433  0.14370  0.75321  1.0000
  C   C170      1.0  0.85667  0.32068  0.75146  1.0000
  C   C171      1.0  0.53474  0.83102  0.74536  1.0000
  C   C172      1.0  0.16883  0.70389  0.74523  1.0000
  C   C173      1.0  0.70389  0.53511  0.74575  1.0000
  C   C174      1.0  0.46527  0.16903  0.74694  1.0000
  C   C175      1.0  0.83137  0.29624  0.74525  1.0000
  C   C176      1.0  0.51869  0.81140  0.64736  1.0000
  C   C177      1.0  0.18861  0.70734  0.64846  1.0000
  C   C178      1.0  0.70740  0.51882  0.64888  1.0000
  C   C179      1.0  0.48131  0.18866  0.64915  1.0000
  C   C180      1.0  0.81159  0.29264  0.64831  1.0000
  C   C181      1.0  0.26663  0.48233  0.64781  1.0000
  C   C182      1.0  0.51732  0.78419  0.64571  1.0000
  C   C183      1.0  0.21581  0.73317  0.64736  1.0000
  C   C184      1.0  0.73319  0.51736  0.64800  1.0000
  C   C185      1.0  0.48263  0.21584  0.64753  1.0000
  C   C186      1.0  0.78443  0.26679  0.64739  1.0000
  C   C187      1.0  0.48892  0.37293  0.65775  1.0000
  C   C188      1.0  0.62723  0.11610  0.65821  1.0000
  C   C189      1.0  0.88392  0.51095  0.65855  1.0000
  C   C190      1.0  0.51129  0.62725  0.65769  1.0000
  C   C191      1.0  0.37293  0.88397  0.65787  1.0000
  C   C192      1.0  0.11603  0.48899  0.65814  1.0000
  C   C193      1.0  0.48666  0.34572  0.65379  1.0000
  C   C194      1.0  0.51349  0.65444  0.65368  1.0000
  C   C195      1.0  0.14101  0.48677  0.65421  1.0000
  C   C196      1.0  0.50117  0.33931  0.74841  1.0000
  C   C197      1.0  0.49888  0.66080  0.74812  1.0000
  C   C198      1.0  0.16195  0.50138  0.74876  1.0000
  C   C199      1.0  0.49986  0.31378  0.74560  1.0000
  C   C200      1.0  0.50005  0.68627  0.74516  1.0000
  C   C201      1.0  0.18621  0.50013  0.74610  1.0000
  C   C202      1.0  0.48305  0.29365  0.65166  1.0000
  C   C203      1.0  0.51681  0.70636  0.65113  1.0000
  C   C204      1.0  0.18954  0.48331  0.65229  1.0000
  C   C205      1.0  0.46833  0.29997  0.55743  1.0000
  C   C206      1.0  0.53165  0.70010  0.55725  1.0000
  C   C207      1.0  0.16848  0.46848  0.55826  1.0000
  C   C208      1.0  0.47038  0.32579  0.55753  1.0000
  C   C209      1.0  0.52975  0.67435  0.55749  1.0000
  C   C210      1.0  0.14467  0.47046  0.55816  1.0000
  C   C211      1.0  0.50643  0.26605  0.64126  1.0000
  C   C212      1.0  0.73418  0.24054  0.64231  1.0000
  C   C213      1.0  0.75925  0.49315  0.64414  1.0000
  C   C214      1.0  0.49339  0.73396  0.64039  1.0000
  C   C215      1.0  0.26605  0.75943  0.64291  1.0000
  C   C216      1.0  0.24056  0.50653  0.64271  1.0000
  C   C217      1.0  0.45684  0.24077  0.65908  1.0000
  C   C218      1.0  0.75935  0.21610  0.65876  1.0000
  C   C219      1.0  0.78388  0.54277  0.65783  1.0000
  C   C220      1.0  0.54301  0.75918  0.65729  1.0000
  C   C221      1.0  0.24088  0.78389  0.65725  1.0000
  C   C222      1.0  0.21594  0.45693  0.65881  1.0000
  C   C223      1.0  0.24129  0.45756  0.65359  1.0000
  C   C224      1.0  0.54216  0.78378  0.65220  1.0000
  C   C225      1.0  0.21624  0.75845  0.65258  1.0000
  C   C226      1.0  0.75854  0.54215  0.65284  1.0000
  C   C227      1.0  0.45776  0.21620  0.65431  1.0000
  C   C228      1.0  0.78397  0.24152  0.65374  1.0000
  C   C229      1.0  0.42873  0.23714  0.67715  1.0000
  C   C230      1.0  0.76291  0.19155  0.67554  1.0000
  C   C231      1.0  0.80872  0.57069  0.67314  1.0000
  C   C232      1.0  0.57111  0.76271  0.67423  1.0000
  C   C233      1.0  0.23748  0.80854  0.67316  1.0000
  C   C234      1.0  0.19119  0.42901  0.67648  1.0000
  C   C235      1.0  0.29083  0.53592  0.64026  1.0000
  C   C236      1.0  0.46367  0.75451  0.63727  1.0000
  C   C237      1.0  0.24551  0.70918  0.64259  1.0000
  C   C238      1.0  0.70903  0.46366  0.64321  1.0000
  C   C239      1.0  0.53633  0.24573  0.63771  1.0000
  C   C240      1.0  0.75487  0.29079  0.63995  1.0000
  C   C241      1.0  0.48787  0.48759  0.60086  1.0000
  C   C242      1.0  0.51250  0.00035  0.60121  1.0000
  C   C243      1.0  0.99969  0.51219  0.60152  1.0000
  C   C244      1.0  0.51216  0.51249  0.60088  1.0000
  C   C245      1.0  0.48760  0.99974  0.60134  1.0000
  C   C246      1.0  0.00032  0.48792  0.60134  1.0000
  C   C247      1.0  0.46069  0.97363  0.59129  1.0000
  C   C248      1.0  0.48166  0.26648  0.65182  1.0000
  C   C249      1.0  0.73367  0.21530  0.65222  1.0000
  C   C250      1.0  0.78455  0.51784  0.65292  1.0000
  C   C251      1.0  0.51815  0.73350  0.65071  1.0000
  C   C252      1.0  0.26655  0.78468  0.65188  1.0000
  C   C253      1.0  0.21527  0.48186  0.65240  1.0000
  C   C254      1.0  0.50753  0.24156  0.64137  1.0000
  C   C255      1.0  0.75877  0.26604  0.64232  1.0000
  C   C256      1.0  0.73380  0.49234  0.64415  1.0000
  C   C257      1.0  0.49239  0.75851  0.64004  1.0000
  C   C258      1.0  0.24149  0.73390  0.64304  1.0000
  C   C259      1.0  0.26600  0.50731  0.64288  1.0000
  C   C260      1.0  0.40831  0.48255  0.58228  1.0000
  C   C261      1.0  0.51749  0.92582  0.58245  1.0000
  C   C262      1.0  0.48256  0.07424  0.58275  1.0000
  C   C263      1.0  0.50421  0.81833  0.55423  1.0000
  C   C264      1.0  0.18186  0.68585  0.55586  1.0000
  C   C265      1.0  0.68597  0.50415  0.55600  1.0000
  C   C266      1.0  0.49580  0.18176  0.55577  1.0000
  C   C267      1.0  0.81828  0.31406  0.55558  1.0000
  C   C268      1.0  0.50566  0.84387  0.55906  1.0000
  C   C269      1.0  0.15631  0.66176  0.56011  1.0000
  C   C270      1.0  0.66188  0.50562  0.56010  1.0000
  C   C271      1.0  0.49435  0.15622  0.56008  1.0000
  C   C272      1.0  0.84381  0.33818  0.55965  1.0000
  C   C273      1.0  0.40901  0.92428  0.57035  1.0000
  C   C274      1.0  0.42771  0.49935  0.67946  1.0000
  C   C275      1.0  0.50082  0.92851  0.68010  1.0000
  C   C276      1.0  0.49931  0.07164  0.68007  1.0000
  N   N1        1.0  0.48372  0.38350  0.05558  1.0000
  N   N2        1.0  0.61644  0.10003  0.05564  1.0000
  N   N3        1.0  0.89981  0.51630  0.05602  1.0000
  N   N4        1.0  0.51625  0.61646  0.05541  1.0000
  N   N5        1.0  0.38337  0.89979  0.05555  1.0000
  N   N6        1.0  0.10011  0.48362  0.05557  1.0000
  N   N7        1.0  0.38298  0.48166  0.06501  1.0000
  N   N8        1.0  0.51824  0.90124  0.06516  1.0000
  N   N9        1.0  0.09852  0.61695  0.06550  1.0000
  N   N10       1.0  0.61700  0.51831  0.06500  1.0000
  N   N11       1.0  0.48168  0.09867  0.06555  1.0000
  N   N12       1.0  0.90127  0.38286  0.06399  1.0000
  N   N13       1.0  0.48366  0.38352  0.55517  1.0000
  N   N14       1.0  0.61663  0.10015  0.55576  1.0000
  N   N15       1.0  0.89984  0.51637  0.55599  1.0000
  N   N16       1.0  0.51658  0.61663  0.55511  1.0000
  N   N17       1.0  0.38353  0.89984  0.55532  1.0000
  N   N18       1.0  0.10015  0.48368  0.55551  1.0000
  N   N19       1.0  0.38299  0.48178  0.56544  1.0000
  N   N20       1.0  0.51824  0.90127  0.56542  1.0000
  N   N21       1.0  0.09878  0.61695  0.56517  1.0000
  N   N22       1.0  0.61699  0.51822  0.56502  1.0000
  N   N23       1.0  0.48181  0.09879  0.56573  1.0000
  N   N24       1.0  0.90127  0.38310  0.56451  1.0000
  O   O1        1.0  0.81024  0.59256  0.14617  1.0000
  O   O2        1.0  0.40762  0.21857  0.12628  1.0000
  O   O3        1.0  0.78067  0.18853  0.11960  1.0000
  O   O4        1.0  0.18981  0.40746  0.13966  1.0000
  O   O5        1.0  0.59241  0.78142  0.13314  1.0000
  O   O6        1.0  0.21680  0.80963  0.14629  1.0000
  O   O7        1.0  0.82867  0.57065  0.26114  1.0000
  O   O8        1.0  0.42850  0.25722  0.25426  1.0000
  O   O9        1.0  0.74302  0.17150  0.25442  1.0000
  O   O10       1.0  0.17109  0.42910  0.25507  1.0000
  O   O11       1.0  0.57102  0.74291  0.26151  1.0000
  O   O12       1.0  0.25789  0.82905  0.25499  1.0000
  O   O13       1.0  0.68644  0.45922  0.20707  1.0000
  O   O14       1.0  0.54084  0.22731  0.20707  1.0000
  O   O15       1.0  0.77269  0.31345  0.20714  1.0000
  O   O16       1.0  0.31348  0.54084  0.20713  1.0000
  O   O17       1.0  0.45885  0.77242  0.20710  1.0000
  O   O18       1.0  0.22740  0.68652  0.20694  1.0000
  O   O19       1.0  0.70940  0.44543  0.07342  1.0000
  O   O20       1.0  0.55455  0.26398  0.07330  1.0000
  O   O21       1.0  0.73600  0.29054  0.07337  1.0000
  O   O22       1.0  0.29058  0.55459  0.07323  1.0000
  O   O23       1.0  0.44536  0.73582  0.07308  1.0000
  O   O24       1.0  0.26407  0.70948  0.07324  1.0000
  O   O25       1.0  0.81164  0.59151  0.61854  1.0000
  O   O26       1.0  0.40756  0.21761  0.63335  1.0000
  O   O27       1.0  0.78212  0.18970  0.62878  1.0000
  O   O28       1.0  0.18853  0.40788  0.62654  1.0000
  O   O29       1.0  0.59215  0.78177  0.62658  1.0000
  O   O30       1.0  0.21866  0.81070  0.62386  1.0000
  O   O31       1.0  0.82777  0.57124  0.76086  1.0000
  O   O32       1.0  0.42851  0.25724  0.75443  1.0000
  O   O33       1.0  0.74309  0.17149  0.75477  1.0000
  O   O34       1.0  0.17190  0.42895  0.76108  1.0000
  O   O35       1.0  0.57151  0.74312  0.75453  1.0000
  O   O36       1.0  0.25682  0.82837  0.75531  1.0000
  O   O37       1.0  0.68625  0.45933  0.71355  1.0000
  O   O38       1.0  0.54120  0.22756  0.70709  1.0000
  O   O39       1.0  0.77274  0.31338  0.71339  1.0000
  O   O40       1.0  0.31344  0.54063  0.71333  1.0000
  O   O41       1.0  0.45911  0.77287  0.70716  1.0000
  O   O42       1.0  0.22712  0.68645  0.71341  1.0000
  O   O43       1.0  0.70928  0.44453  0.58680  1.0000
  O   O44       1.0  0.55515  0.26506  0.57964  1.0000
  O   O45       1.0  0.73594  0.29066  0.57979  1.0000
  O   O46       1.0  0.29073  0.55473  0.58008  1.0000
  O   O47       1.0  0.44469  0.73516  0.57996  1.0000
  O   O48       1.0  0.26493  0.70943  0.58663  1.0000
  C   C277      1.0  0.81756  0.49638  0.76049  1.0000
  C   C278      1.0  0.81072  0.51245  0.67969  1.0000
  C  Sn1       1.0  0.82862  0.52875  0.57821  1.0000
  C  Sn2       1.0  0.85381  0.52891  0.55745  1.0000
  C   C279      1.0  0.86045  0.51274  0.63875  1.0000
  C   C280      1.0  0.84239  0.49652  0.74004  1.0000
  H   H169      1.0  0.80358  0.48381  0.83881  1.0000
  O  Te1       1.0  0.82147  0.54469  0.49844  1.0000
  O  Te2       1.0  0.87207  0.54500  0.45671  1.0000
  H   H170      1.0  0.84768  0.48406  0.80252  1.0000
  Mg  Mg1       1.0  0.85315  0.56322  0.37409  1.0000
  C   C281      1.0  0.66580  0.16873  0.76515  1.0000
  C   C282      1.0  0.65491  0.14642  0.67645  1.0000
  C  Sn3       1.0  0.67113  0.14547  0.57262  1.0000
  C  Sn4       1.0  0.69877  0.16729  0.55759  1.0000
  C   C283      1.0  0.70948  0.18951  0.64690  1.0000
  C   C284      1.0  0.69306  0.19026  0.75042  1.0000
  H   H171      1.0  0.65310  0.16930  0.84529  1.0000
  O  Te3       1.0  0.65992  0.12303  0.48487  1.0000
  O  Te4       1.0  0.71545  0.16687  0.45473  1.0000
  H   H172      1.0  0.70150  0.20752  0.81913  1.0000
  Mg  Mg2       1.0  0.69082  0.13184  0.36048  1.0000
  C   C285      1.0  0.57984  0.53478  0.48057  1.0000
  C   C286      1.0  0.59081  0.52203  0.55986  1.0000
  C  Sn5       1.0  0.57505  0.50409  0.66234  1.0000
  C  Sn6       1.0  0.54780  0.49884  0.68560  1.0000
  C   C287      1.0  0.53701  0.51168  0.60567  1.0000
  C   C288      1.0  0.55297  0.52961  0.50342  1.0000
  H   H173      1.0  0.59218  0.54864  0.40141  1.0000
  O  Te5       1.0  0.58633  0.49153  0.74065  1.0000
  O  Te6       1.0  0.53159  0.48099  0.78732  1.0000
  H   H174      1.0  0.54446  0.53947  0.44199  1.0000
  Mg  Mg3       1.0  0.55614  0.46883  0.86724  1.0000
  C   C289      1.0  0.33371  0.49659  0.54207  1.0000
  C   C290      1.0  0.34189  0.48356  0.63573  1.0000
  C  Sn7       1.0  0.32391  0.46768  0.73787  1.0000
  C  Sn8       1.0  0.29726  0.46482  0.74613  1.0000
  C   C291      1.0  0.28927  0.47792  0.65189  1.0000
  C   C292      1.0  0.30743  0.49377  0.55011  1.0000
  H   H175      1.0  0.34775  0.50884  0.46327  1.0000
  O  Te7       1.0  0.33242  0.45482  0.83065  1.0000
  O  Te8       1.0  0.27888  0.44906  0.84717  1.0000
  H   H176      1.0  0.30109  0.50384  0.47756  1.0000
  Mg  Mg4       1.0  0.29999  0.43553  0.95006  1.0000
  C   C293      1.0  0.56235  0.06566  0.96709  1.0000
  C   C294      1.0  0.58583  0.07483  0.04721  1.0000
  C  Sn9       1.0  0.58627  0.05846  0.15146  1.0000
  C  Sn10      1.0  0.56273  0.03220  0.17567  1.0000
  C   C295      1.0  0.53935  0.02299  0.09489  1.0000
  C   C296      1.0  0.53913  0.03977  0.99087  1.0000
  H   H177      1.0  0.56218  0.07846  0.88656  1.0000
  O  Te9       1.0  0.60990  0.06816  0.23058  1.0000
  O  Te10      1.0  0.56262  0.01541  0.27916  1.0000
  H   H178      1.0  0.52095  0.03249  0.92880  1.0000
  Mg  Mg5       1.0  0.59974  0.03772  0.35961  1.0000
  C   C297      1.0  0.05340  0.50519  0.47822  1.0000
  C   C298      1.0  0.03085  0.49057  0.56331  1.0000
  C  Sn11      1.0  0.03129  0.47264  0.65911  1.0000
  C  Sn12      1.0  0.05479  0.46933  0.66969  1.0000
  C   C299      1.0  0.07726  0.48407  0.58415  1.0000
  C   C300      1.0  0.07659  0.50195  0.48862  1.0000
  H   H179      1.0  0.05290  0.51904  0.40435  1.0000
  O  Te11      1.0  0.00858  0.45818  0.74330  1.0000
  O  Te12      1.0  0.05578  0.45156  0.76457  1.0000
  H   H180      1.0  0.09406  0.51329  0.42281  1.0000
  Mg  Mg6       1.0  0.01972  0.43638  0.85660  1.0000
  C   C301      1.0  0.49489  0.54822  0.97763  1.0000
  C   C302      1.0  0.50946  0.54010  0.06307  1.0000
  C  Sn13      1.0  0.52730  0.55848  0.15934  1.0000
  C  Sn14      1.0  0.53055  0.58525  0.17003  1.0000
  C   C303      1.0  0.51586  0.59296  0.08414  1.0000
  C   C304      1.0  0.49808  0.57463  0.98814  1.0000
  H   H181      1.0  0.48112  0.53387  0.90340  1.0000
  O  Te13      1.0  0.54171  0.55025  0.24387  1.0000
  O  Te14      1.0  0.54823  0.60403  0.26538  1.0000
  H   H182      1.0  0.48678  0.58075  0.92206  1.0000
  Mg  Mg7       1.0  0.56338  0.58319  0.35775  1.0000
  C   C305      1.0  0.04468  0.57978  0.98238  1.0000
  C   C306      1.0  0.06854  0.59051  0.06070  1.0000
  C  Sn15      1.0  0.07095  0.57470  0.16216  1.0000
  C  Sn16      1.0  0.04903  0.54743  0.18539  1.0000
  C   C307      1.0  0.02524  0.53665  0.10643  1.0000
  C   C308      1.0  0.02304  0.55266  0.00519  1.0000
  H   H183      1.0  0.04298  0.59216  0.90400  1.0000
  O  Te15      1.0  0.09494  0.58597  0.23951  1.0000
  O  Te16      1.0  0.05090  0.53117  0.28610  1.0000
  H   H184      1.0  0.00457  0.54439  0.94452  1.0000
  Mg  Mg8       1.0  0.08774  0.55571  0.36493  1.0000
  C   C309      1.0  0.53423  0.69550  0.04524  1.0000
  C   C310      1.0  0.52025  0.70523  0.12418  1.0000
  C  Sn17      1.0  0.50280  0.68887  0.22682  1.0000
  C  Sn18      1.0  0.49932  0.66230  0.25065  1.0000
  C   C311      1.0  0.51341  0.65277  0.17118  1.0000
  C   C312      1.0  0.53081  0.66931  0.06871  1.0000
  H   H185      1.0  0.54771  0.70852  0.96601  1.0000
  O  Te17      1.0  0.48898  0.69890  0.30471  1.0000
  O  Te18      1.0  0.48200  0.64553  0.35259  1.0000
  H   H186      1.0  0.54165  0.66178  0.00767  1.0000
  Mg  Mg9       1.0  0.46764  0.66834  0.43175  1.0000
  C   C313      1.0  0.49497  0.54833  0.47771  1.0000
  C   C314      1.0  0.50955  0.54038  0.56292  1.0000
  C  Sn19      1.0  0.52749  0.55876  0.65886  1.0000
  C  Sn20      1.0  0.53085  0.58558  0.66949  1.0000
  C   C315      1.0  0.51616  0.59333  0.58383  1.0000
  C   C316      1.0  0.49827  0.57477  0.48815  1.0000
  H   H187      1.0  0.48112  0.53397  0.40372  1.0000
  O  Te19      1.0  0.54191  0.55049  0.74317  1.0000
  O  Te20      1.0  0.54864  0.60436  0.76452  1.0000
  H   H188      1.0  0.48697  0.58093  0.42225  1.0000
  Mg  Mg10      1.0  0.56375  0.58345  0.85666  1.0000
  C   C317      1.0  0.96452  0.53334  0.68747  1.0000
  C   C318      1.0  0.97271  0.51720  0.61554  1.0000
  C  Sn21      1.0  0.95624  0.50020  0.51180  1.0000
  C  Sn22      1.0  0.93113  0.49940  0.47969  1.0000
  C   C319      1.0  0.92313  0.51564  0.55219  1.0000
  C   C320      1.0  0.93976  0.53257  0.65583  1.0000
  H   H189      1.0  0.97739  0.54645  0.76761  1.0000
  O  Te21      1.0  0.96472  0.48420  0.44098  1.0000
  O  Te22      1.0  0.91429  0.48260  0.37646  1.0000
  H   H190      1.0  0.93343  0.54507  0.71144  1.0000
  Mg  Mg11      1.0  0.93470  0.46459  0.30894  1.0000
  C   C321      1.0  0.04934  0.46722  0.18747  1.0000
  C   C322      1.0  0.07061  0.47968  0.09361  1.0000
  C  Sn23      1.0  0.06998  0.49754  0.99666  1.0000
  C  Sn24      1.0  0.04762  0.50276  0.99389  1.0000
  C   C323      1.0  0.02645  0.48998  0.08829  1.0000
  C   C324      1.0  0.02729  0.47236  0.18484  1.0000
  H   H191      1.0  0.04999  0.45360  0.26222  1.0000
  O  Te23      1.0  0.09139  0.50981  0.90361  1.0000
  O  Te24      1.0  0.04648  0.52030  0.89811  1.0000
  H   H192      1.0  0.01083  0.46273  0.25755  1.0000
  Mg  Mg12      1.0  0.08056  0.53215  0.79256  1.0000
  C   C325      1.0  0.67903  0.50200  0.04197  1.0000
  C   C326      1.0  0.70280  0.51587  0.12041  1.0000
  C  Sn25      1.0  0.70370  0.53254  0.22665  1.0000
  C  Sn26      1.0  0.68033  0.53532  0.25466  1.0000
  C   C327      1.0  0.65663  0.52135  0.17566  1.0000
  C   C328      1.0  0.65596  0.50473  0.06957  1.0000
  H   H193      1.0  0.67850  0.48935  0.95993  1.0000
  O  Te25      1.0  0.72762  0.54625  0.30398  1.0000
  O  Te26      1.0  0.68066  0.55184  0.36027  1.0000
  H   H194      1.0  0.63754  0.49399  0.00891  1.0000
  Mg  Mg13      1.0  0.71805  0.56639  0.43700  1.0000
  C   C329      1.0  0.30460  0.83858  0.54417  1.0000
  C   C330      1.0  0.29485  0.81497  0.62357  1.0000
  C  Sn27      1.0  0.31114  0.81403  0.72696  1.0000
  C  Sn28      1.0  0.33767  0.83718  0.75110  1.0000
  C   C331      1.0  0.34722  0.86071  0.67117  1.0000
  C   C332      1.0  0.33076  0.86143  0.56794  1.0000
  H   H195      1.0  0.29185  0.83915  0.46435  1.0000
  O  Te27      1.0  0.30108  0.79028  0.80530  1.0000
  O  Te28      1.0  0.35437  0.83680  0.85381  1.0000
  H   H196      1.0  0.33830  0.87972  0.50654  1.0000
  Mg  Mg14      1.0  0.33154  0.79969  0.93335  1.0000
  C   C333      1.0  0.18239  0.50335  0.25930  1.0000
  C   C334      1.0  0.18916  0.48728  0.17785  1.0000
  C  Sn29      1.0  0.17126  0.47112  0.07597  1.0000
  C  Sn30      1.0  0.14614  0.47110  0.05548  1.0000
  C   C335      1.0  0.13956  0.48726  0.13744  1.0000
  C   C336      1.0  0.15762  0.50335  0.23912  1.0000
  H   H197      1.0  0.19637  0.51582  0.33792  1.0000
  O  Te29      1.0  0.17834  0.45540  0.99554  1.0000
  O  Te30      1.0  0.12788  0.45536  0.95436  1.0000
  H   H198      1.0  0.15238  0.51580  0.30211  1.0000
  Mg  Mg15      1.0  0.14669  0.43708  0.87087  1.0000
  C   C337      1.0  0.46189  0.16183  0.26153  1.0000
  C   C338      1.0  0.47741  0.18419  0.17673  1.0000
  C  Sn31      1.0  0.49332  0.18204  0.07480  1.0000
  C  Sn32      1.0  0.49366  0.15701  0.05767  1.0000
  C   C339      1.0  0.47804  0.13476  0.14297  1.0000
  C   C340      1.0  0.46219  0.13713  0.24467  1.0000
  H   H199      1.0  0.44961  0.16366  0.34017  1.0000
  O  Te31      1.0  0.50872  0.20480  0.99100  1.0000
  O  Te32      1.0  0.50938  0.15452  0.95658  1.0000
  H   H200      1.0  0.45016  0.11981  0.31026  1.0000
  Mg  Mg16      1.0  0.52690  0.19104  0.86778  1.0000
  C   C341      1.0  0.94497  0.44857  0.19731  1.0000
  C   C342      1.0  0.96971  0.45860  0.12654  1.0000
  C  Sn33      1.0  0.97211  0.44279  0.02481  1.0000
  C  Sn34      1.0  0.94930  0.41669  0.99355  1.0000
  C   C343      1.0  0.92462  0.40663  0.06487  1.0000
  C   C344      1.0  0.92244  0.42261  0.16650  1.0000
  H   H201      1.0  0.94328  0.46094  0.27589  1.0000
  O  Te33      1.0  0.99699  0.45334  0.95514  1.0000
  O  Te34      1.0  0.95113  0.40046  0.89232  1.0000
  H   H202      1.0  0.90328  0.41485  0.22122  1.0000
  Mg  Mg17      1.0  0.98938  0.42352  0.82575  1.0000
  C   C345      1.0  0.17686  0.67884  0.04192  1.0000
  C   C346      1.0  0.18686  0.70265  0.12023  1.0000
  C  Sn35      1.0  0.17118  0.70363  0.22665  1.0000
  C  Sn36      1.0  0.14502  0.68029  0.25498  1.0000
  C   C347      1.0  0.13521  0.65656  0.17609  1.0000
  C   C348      1.0  0.15107  0.65581  0.06981  1.0000
  H   H203      1.0  0.18914  0.67847  0.95973  1.0000
  O  Te35      1.0  0.18147  0.72759  0.30386  1.0000
  O  Te36      1.0  0.12893  0.68070  0.36077  1.0000
  H   H204      1.0  0.14334  0.63737  0.00925  1.0000
  Mg  Mg18      1.0  0.15186  0.71812  0.43723  1.0000
  C   C349      1.0  0.46712  0.41789  0.68627  1.0000
  C   C350      1.0  0.47975  0.40914  0.59299  1.0000
  C  Sn37      1.0  0.49758  0.42746  0.49670  1.0000
  C  Sn38      1.0  0.50283  0.45505  0.49404  1.0000
  C   C351      1.0  0.49011  0.46361  0.58786  1.0000
  C   C352      1.0  0.47229  0.44510  0.68375  1.0000
  H   H205      1.0  0.45334  0.40357  0.76051  1.0000
  O  Te37      1.0  0.51002  0.41838  0.40421  1.0000
  O  Te38      1.0  0.52058  0.47380  0.39892  1.0000
  H   H206      1.0  0.46253  0.45188  0.75602  1.0000
  Mg  Mg19      1.0  0.53260  0.45163  0.29397  1.0000
  C   C353      1.0  0.04501  0.57979  0.48106  1.0000
  C   C354      1.0  0.06877  0.59080  0.56023  1.0000
  C  Sn39      1.0  0.07100  0.57509  0.66281  1.0000
  C  Sn40      1.0  0.04900  0.54787  0.68629  1.0000
  C   C355      1.0  0.02533  0.53703  0.60646  1.0000
  C   C356      1.0  0.02331  0.55294  0.50412  1.0000
  H   H207      1.0  0.04346  0.59209  0.40182  1.0000
  O  Te39      1.0  0.09487  0.58641  0.74100  1.0000
  O  Te40      1.0  0.05069  0.53171  0.78810  1.0000
  H   H208      1.0  0.00492  0.54440  0.44278  1.0000
  Mg  Mg20      1.0  0.08743  0.55629  0.86779  1.0000
  C   C357      1.0  0.94507  0.44880  0.69757  1.0000
  C   C358      1.0  0.96978  0.45879  0.62659  1.0000
  C  Sn41      1.0  0.97214  0.44295  0.52487  1.0000
  C  Sn42      1.0  0.94929  0.41663  0.49384  1.0000
  C   C359      1.0  0.92465  0.40682  0.56538  1.0000
  C   C360      1.0  0.92253  0.42284  0.66700  1.0000
  H   H209      1.0  0.94342  0.46119  0.77615  1.0000
  O  Te41      1.0  0.99698  0.45325  0.45497  1.0000
  O  Te42      1.0  0.95108  0.40037  0.39263  1.0000
  H   H210      1.0  0.90338  0.41510  0.72189  1.0000
  Mg  Mg21      1.0  0.98930  0.42339  0.32570  1.0000
  C   C361      1.0  0.83132  0.49696  0.26582  1.0000
  C   C362      1.0  0.85362  0.50839  0.17715  1.0000
  C  Sn43      1.0  0.85453  0.52553  0.07344  1.0000
  C  Sn44      1.0  0.83268  0.53131  0.05850  1.0000
  C   C363      1.0  0.81047  0.51979  0.14779  1.0000
  C   C364      1.0  0.80977  0.50266  0.25119  1.0000
  H   H211      1.0  0.83078  0.48372  0.34588  1.0000
  O  Te43      1.0  0.87695  0.53698  0.98570  1.0000
  O  Te44      1.0  0.83307  0.54860  0.95575  1.0000
  H   H212      1.0  0.79251  0.49383  0.31988  1.0000
  Mg  Mg22      1.0  0.86809  0.55902  0.86148  1.0000
  C   C365      1.0  0.44871  0.50363  0.19754  1.0000
  C   C366      1.0  0.45870  0.48892  0.12647  1.0000
  C  Sn45      1.0  0.44285  0.47071  0.02486  1.0000
  C  Sn46      1.0  0.41652  0.46743  0.99402  1.0000
  C   C367      1.0  0.40671  0.48205  0.06564  1.0000
  C   C368      1.0  0.42274  0.50021  0.16716  1.0000
  H   H213      1.0  0.46111  0.51770  0.27604  1.0000
  O  Te45      1.0  0.45315  0.45638  0.95487  1.0000
  O  Te46      1.0  0.40026  0.44937  0.89292  1.0000
  H   H214      1.0  0.41500  0.51161  0.22211  1.0000
  Mg  Mg23      1.0  0.42328  0.43417  0.82581  1.0000
  C   C369      1.0  0.56888  0.03541  0.68662  1.0000
  C   C370      1.0  0.54454  0.02731  0.61506  1.0000
  C  Sn47      1.0  0.54402  0.04386  0.51193  1.0000
  C  Sn48      1.0  0.56834  0.06898  0.48007  1.0000
  C   C371      1.0  0.59259  0.07689  0.55219  1.0000
  C   C372      1.0  0.59288  0.06018  0.65522  1.0000
  H   H215      1.0  0.56912  0.02248  0.76629  1.0000
  O  Te47      1.0  0.51952  0.03546  0.44148  1.0000
  O  Te48      1.0  0.56839  0.08590  0.37744  1.0000
  H   H216      1.0  0.61173  0.06645  0.71055  1.0000
  Mg  Mg24      1.0  0.52994  0.06558  0.31023  1.0000
