data_image0
_chemical_formula_structural       H72C132N24O48SnCSn2CSnTe4Mg2SnCSn2CSnTe4Mg2SnCSn2CSnTe4Mg2SnCSn2CSnTe4Mg2SnCSn2CSnTe4Mg2SnCSn2CSnTe4Mg2SnCSn2CSnTe4Mg2SnCSn2CSnTe4Mg2SnCSn2CSnTe4Mg2SnCSn2CSnTe4Mg2SnCSn2CSnTe4Mg2SnCSn2CSnTe4Mg2SnCSn2CSnTe4Mg2SnCSn2CSnTe4Mg2SnCSn2CSnTe4Mg2SnCSn2CSnTe4Mg2SnCSn2CSnTe4Mg2SnCSn2CSnTe4Mg2SnCSn2CSnTe4Mg2SnCSn2CSnTe4Mg2SnCSn2CSnTe4Mg2SnCSn2CSnTe4Mg2SnCSn2CSnTe4Mg2SnCSn2CSnTe4Mg2SnCSn2CSnTe4Mg2SnCSn2CSnTe4Mg2SnCSn2CSnTe4Mg2SnCSn2CSnTe4Mg2SnCSn2CSnTe4Mg2SnCSn2CSnTe4Mg2SnCSn2CSnTe4Mg2SnCSn2CSnTe4Mg2SnCSn2CSnTe4Mg2SnCSn2CSnTe4Mg2SnCSn2CSnTe4Mg2SnCSn2CSnTe4Mg2SnCSn2CSnTe4Mg2SnCSn2CSnTe4Mg2SnCSn2CSnTe4Mg2SnCSn2CSnTe4Mg2SnCSn2CSnTe4Mg2SnCSn2CSnTe4Mg2SnCSn2CSnTe4Mg2SnCSn2CSnTe4Mg2SnCSn2CSnTe4Mg2SnCSn2CSnTe4Mg2SnCSn2CSnTe4Mg2SnCSn2CSnTe4Mg2
_chemical_formula_sum              "H72 C228 N24 O48 Sn192 Te192 Mg96"
_cell_length_a       55.9021
_cell_length_b       55.9089
_cell_length_c       10.0076
_cell_angle_alpha    90.0692
_cell_angle_beta     89.9664
_cell_angle_gamma    120.003

_symmetry_space_group_name_H-M    'P1'
_space_group_IT_number       1

loop_
  _space_group_symop_operation_xyz
  'x, y, z'

loop_
  _atom_site_type_symbol
  _atom_site_label
  _atom_site_symmetry_multiplicity
  _atom_site_fract_x
  _atom_site_fract_y
  _atom_site_fract_z
  _atom_site_occupancy
  H   H1        1.0  0.49587  0.38406  0.25367  1.0000
  H   H2        1.0  0.61594  0.11172  0.25375  1.0000
  H   H3        1.0  0.88816  0.50401  0.25389  1.0000
  H   H4        1.0  0.50395  0.61587  0.25329  1.0000
  H   H5        1.0  0.38396  0.88811  0.25340  1.0000
  H   H6        1.0  0.11176  0.49584  0.25361  1.0000
  H   H7        1.0  0.52584  0.28518  0.13153  1.0000
  H   H8        1.0  0.71471  0.24065  0.13160  1.0000
  H   H9        1.0  0.75933  0.47417  0.12995  1.0000
  H   H10       1.0  0.47413  0.71472  0.13155  1.0000
  H   H11       1.0  0.28511  0.75948  0.12919  1.0000
  H   H12       1.0  0.24062  0.52582  0.12998  1.0000
  H   H13       1.0  0.24116  0.43800  0.15888  1.0000
  H   H14       1.0  0.56190  0.80323  0.15864  1.0000
  H   H15       1.0  0.19659  0.75856  0.16118  1.0000
  H   H16       1.0  0.75882  0.56198  0.16270  1.0000
  H   H17       1.0  0.43795  0.19672  0.15534  1.0000
  H   H18       1.0  0.80310  0.24099  0.15251  1.0000
  H   H19       1.0  0.84290  0.59003  0.27236  1.0000
  H   H20       1.0  0.40906  0.25215  0.26078  1.0000
  H   H21       1.0  0.74763  0.15678  0.25844  1.0000
  H   H22       1.0  0.15677  0.40970  0.26440  1.0000
  H   H23       1.0  0.59041  0.74783  0.26906  1.0000
  H   H24       1.0  0.25249  0.84312  0.26576  1.0000
  H   H25       1.0  0.68894  0.47660  0.24295  1.0000
  H   H26       1.0  0.52349  0.21256  0.24377  1.0000
  H   H27       1.0  0.78752  0.31093  0.24336  1.0000
  H   H28       1.0  0.31089  0.52351  0.24385  1.0000
  H   H29       1.0  0.47616  0.78733  0.24333  1.0000
  H   H30       1.0  0.21238  0.68890  0.24176  1.0000
  H   H31       1.0  0.37224  0.47221  0.26632  1.0000
  H   H32       1.0  0.52775  0.90004  0.26643  1.0000
  H   H33       1.0  0.09994  0.62763  0.26710  1.0000
  H   H34       1.0  0.62763  0.52762  0.26657  1.0000
  H   H35       1.0  0.47213  0.09994  0.26681  1.0000
  H   H36       1.0  0.90003  0.37210  0.26520  1.0000
  H   H37       1.0  0.49585  0.38414  0.75320  1.0000
  H   H38       1.0  0.61607  0.11186  0.75375  1.0000
  H   H39       1.0  0.88817  0.50392  0.75367  1.0000
  H   H40       1.0  0.50435  0.61607  0.75312  1.0000
  H   H41       1.0  0.38410  0.88827  0.75336  1.0000
  H   H42       1.0  0.11175  0.49592  0.75358  1.0000
  H   H43       1.0  0.52585  0.28544  0.63311  1.0000
  H   H44       1.0  0.71485  0.24070  0.63456  1.0000
  H   H45       1.0  0.75897  0.47359  0.63710  1.0000
  H   H46       1.0  0.47391  0.71459  0.63253  1.0000
  H   H47       1.0  0.28541  0.75929  0.63589  1.0000
  H   H48       1.0  0.24078  0.52606  0.63506  1.0000
  H   H49       1.0  0.24105  0.43798  0.65567  1.0000
  H   H50       1.0  0.56168  0.80317  0.65460  1.0000
  H   H51       1.0  0.19684  0.75858  0.65421  1.0000
  H   H52       1.0  0.75879  0.56173  0.65358  1.0000
  H   H53       1.0  0.43824  0.19680  0.65697  1.0000
  H   H54       1.0  0.80331  0.24129  0.65576  1.0000
  H   H55       1.0  0.84257  0.59056  0.76357  1.0000
  H   H56       1.0  0.40904  0.25196  0.76269  1.0000
  H   H57       1.0  0.74817  0.15716  0.76282  1.0000
  H   H58       1.0  0.15725  0.40962  0.76714  1.0000
  H   H59       1.0  0.59097  0.74825  0.76064  1.0000
  H   H60       1.0  0.25175  0.84275  0.76075  1.0000
  H   H61       1.0  0.68875  0.47699  0.74525  1.0000
  H   H62       1.0  0.52380  0.21241  0.74103  1.0000
  H   H63       1.0  0.78769  0.31083  0.74756  1.0000
  H   H64       1.0  0.31091  0.52317  0.74782  1.0000
  H   H65       1.0  0.47665  0.78797  0.74029  1.0000
  H   H66       1.0  0.21180  0.68882  0.74375  1.0000
  H   H67       1.0  0.37216  0.47209  0.76649  1.0000
  H   H68       1.0  0.52780  0.90003  0.76663  1.0000
  H   H69       1.0  0.09990  0.62798  0.76600  1.0000
  H   H70       1.0  0.62790  0.52806  0.76597  1.0000
  H   H71       1.0  0.47214  0.10000  0.76682  1.0000
  H   H72       1.0  0.90021  0.37224  0.76544  1.0000
  C   C1        1.0  0.36733  0.47734  0.16766  1.0000
  C   C2        1.0  0.52259  0.88997  0.16779  1.0000
  C   C3        1.0  0.10989  0.63256  0.16822  1.0000
  C   C4        1.0  0.63260  0.52260  0.16774  1.0000
  C   C5        1.0  0.47730  0.10997  0.16818  1.0000
  C   C6        1.0  0.88998  0.36720  0.16655  1.0000
  C   C7        1.0  0.26669  0.48234  0.14667  1.0000
  C   C8        1.0  0.51754  0.78430  0.14718  1.0000
  C   C9        1.0  0.21553  0.73319  0.14724  1.0000
  C   C10       1.0  0.73330  0.51767  0.14801  1.0000
  C   C11       1.0  0.48232  0.21561  0.14629  1.0000
  C   C12       1.0  0.78429  0.26656  0.14494  1.0000
  C   C13       1.0  0.48898  0.37289  0.15810  1.0000
  C   C14       1.0  0.62709  0.11594  0.15816  1.0000
  C   C15       1.0  0.88390  0.51097  0.15856  1.0000
  C   C16       1.0  0.51091  0.62706  0.15789  1.0000
  C   C17       1.0  0.37278  0.88386  0.15794  1.0000
  C   C18       1.0  0.11603  0.48894  0.15804  1.0000
  C   C19       1.0  0.50636  0.26585  0.13993  1.0000
  C   C20       1.0  0.73403  0.24045  0.13961  1.0000
  C   C21       1.0  0.75948  0.49363  0.14000  1.0000
  C   C22       1.0  0.49358  0.73407  0.14054  1.0000
  C   C23       1.0  0.26574  0.75954  0.13902  1.0000
  C   C24       1.0  0.24049  0.50636  0.13924  1.0000
  C   C25       1.0  0.45676  0.24077  0.15752  1.0000
  C   C26       1.0  0.75907  0.21587  0.15566  1.0000
  C   C27       1.0  0.78397  0.54313  0.16341  1.0000
  C   C28       1.0  0.54314  0.75922  0.16045  1.0000
  C   C29       1.0  0.24056  0.78390  0.16156  1.0000
  C   C30       1.0  0.21600  0.45683  0.16005  1.0000
  C   C31       1.0  0.24140  0.45757  0.15486  1.0000
  C   C32       1.0  0.54237  0.78386  0.15512  1.0000
  C   C33       1.0  0.21596  0.75842  0.15646  1.0000
  C   C34       1.0  0.75858  0.54242  0.15783  1.0000
  C   C35       1.0  0.45750  0.21610  0.15297  1.0000
  C   C36       1.0  0.78376  0.24123  0.15071  1.0000
  C   C37       1.0  0.42874  0.23751  0.17392  1.0000
  C   C38       1.0  0.76224  0.19106  0.17108  1.0000
  C   C39       1.0  0.80847  0.57106  0.18563  1.0000
  C   C40       1.0  0.57111  0.76256  0.17974  1.0000
  C   C41       1.0  0.23694  0.80830  0.18324  1.0000
  C   C42       1.0  0.19147  0.42887  0.18027  1.0000
  C   C43       1.0  0.29077  0.53592  0.13437  1.0000
  C   C44       1.0  0.46394  0.75468  0.13476  1.0000
  C   C45       1.0  0.24516  0.70925  0.13423  1.0000
  C   C46       1.0  0.70920  0.46411  0.13459  1.0000
  C   C47       1.0  0.53592  0.24516  0.13488  1.0000
  C   C48       1.0  0.75488  0.29073  0.13443  1.0000
  C   C49       1.0  0.48784  0.48753  0.10109  1.0000
  C   C50       1.0  0.51235  0.00024  0.10143  1.0000
  C   C51       1.0  0.99961  0.51203  0.10178  1.0000
  C   C52       1.0  0.51212  0.51244  0.10108  1.0000
  C   C53       1.0  0.48745  0.99964  0.10147  1.0000
  C   C54       1.0  0.00024  0.48775  0.10152  1.0000
  C   C55       1.0  0.48167  0.26641  0.15087  1.0000
  C   C56       1.0  0.73345  0.21518  0.14964  1.0000
  C   C57       1.0  0.78472  0.51827  0.15314  1.0000
  C   C58       1.0  0.51828  0.73356  0.15241  1.0000
  C   C59       1.0  0.26623  0.78475  0.15160  1.0000
  C   C60       1.0  0.21523  0.48170  0.15113  1.0000
  C   C61       1.0  0.50727  0.24126  0.13976  1.0000
  C   C62       1.0  0.75867  0.26591  0.13897  1.0000
  C   C63       1.0  0.73399  0.49274  0.13983  1.0000
  C   C64       1.0  0.49263  0.75864  0.14017  1.0000
  C   C65       1.0  0.24120  0.73398  0.13911  1.0000
  C   C66       1.0  0.26599  0.50727  0.13917  1.0000
  C   C67       1.0  0.36730  0.47732  0.66800  1.0000
  C   C68       1.0  0.52261  0.88998  0.66794  1.0000
  C   C69       1.0  0.11002  0.63272  0.66755  1.0000
  C   C70       1.0  0.63272  0.52275  0.66751  1.0000
  C   C71       1.0  0.47739  0.11007  0.66828  1.0000
  C   C72       1.0  0.89008  0.36740  0.66701  1.0000
  C   C73       1.0  0.26663  0.48233  0.64781  1.0000
  C   C74       1.0  0.51732  0.78419  0.64571  1.0000
  C   C75       1.0  0.21581  0.73317  0.64736  1.0000
  C   C76       1.0  0.73319  0.51736  0.64800  1.0000
  C   C77       1.0  0.48263  0.21584  0.64753  1.0000
  C   C78       1.0  0.78443  0.26679  0.64739  1.0000
  C   C79       1.0  0.48892  0.37293  0.65775  1.0000
  C   C80       1.0  0.62723  0.11610  0.65821  1.0000
  C   C81       1.0  0.88392  0.51095  0.65855  1.0000
  C   C82       1.0  0.51129  0.62725  0.65769  1.0000
  C   C83       1.0  0.37293  0.88397  0.65787  1.0000
  C   C84       1.0  0.11603  0.48899  0.65814  1.0000
  C   C85       1.0  0.50643  0.26605  0.64126  1.0000
  C   C86       1.0  0.73418  0.24054  0.64231  1.0000
  C   C87       1.0  0.75925  0.49315  0.64414  1.0000
  C   C88       1.0  0.49339  0.73396  0.64039  1.0000
  C   C89       1.0  0.26605  0.75943  0.64291  1.0000
  C   C90       1.0  0.24056  0.50653  0.64271  1.0000
  C   C91       1.0  0.45684  0.24077  0.65908  1.0000
  C   C92       1.0  0.75935  0.21610  0.65876  1.0000
  C   C93       1.0  0.78388  0.54277  0.65783  1.0000
  C   C94       1.0  0.54301  0.75918  0.65729  1.0000
  C   C95       1.0  0.24088  0.78389  0.65725  1.0000
  C   C96       1.0  0.21594  0.45693  0.65881  1.0000
  C   C97       1.0  0.24129  0.45756  0.65359  1.0000
  C   C98       1.0  0.54216  0.78378  0.65220  1.0000
  C   C99       1.0  0.21624  0.75845  0.65258  1.0000
  C   C100      1.0  0.75854  0.54215  0.65284  1.0000
  C   C101      1.0  0.45776  0.21620  0.65431  1.0000
  C   C102      1.0  0.78397  0.24152  0.65374  1.0000
  C   C103      1.0  0.42873  0.23714  0.67715  1.0000
  C   C104      1.0  0.76291  0.19155  0.67554  1.0000
  C   C105      1.0  0.80872  0.57069  0.67314  1.0000
  C   C106      1.0  0.57111  0.76271  0.67423  1.0000
  C   C107      1.0  0.23748  0.80854  0.67316  1.0000
  C   C108      1.0  0.19119  0.42901  0.67648  1.0000
  C   C109      1.0  0.29083  0.53592  0.64026  1.0000
  C   C110      1.0  0.46367  0.75451  0.63727  1.0000
  C   C111      1.0  0.24551  0.70918  0.64259  1.0000
  C   C112      1.0  0.70903  0.46366  0.64321  1.0000
  C   C113      1.0  0.53633  0.24573  0.63771  1.0000
  C   C114      1.0  0.75487  0.29079  0.63995  1.0000
  C   C115      1.0  0.48787  0.48759  0.60086  1.0000
  C   C116      1.0  0.51250  0.00035  0.60121  1.0000
  C   C117      1.0  0.99969  0.51219  0.60152  1.0000
  C   C118      1.0  0.51216  0.51249  0.60088  1.0000
  C   C119      1.0  0.48760  0.99974  0.60134  1.0000
  C   C120      1.0  0.00032  0.48792  0.60134  1.0000
  C   C121      1.0  0.48166  0.26648  0.65182  1.0000
  C   C122      1.0  0.73367  0.21530  0.65222  1.0000
  C   C123      1.0  0.78455  0.51784  0.65292  1.0000
  C   C124      1.0  0.51815  0.73350  0.65071  1.0000
  C   C125      1.0  0.26655  0.78468  0.65188  1.0000
  C   C126      1.0  0.21527  0.48186  0.65240  1.0000
  C   C127      1.0  0.50753  0.24156  0.64137  1.0000
  C   C128      1.0  0.75877  0.26604  0.64232  1.0000
  C   C129      1.0  0.73380  0.49234  0.64415  1.0000
  C   C130      1.0  0.49239  0.75851  0.64004  1.0000
  C   C131      1.0  0.24149  0.73390  0.64304  1.0000
  C   C132      1.0  0.26600  0.50731  0.64288  1.0000
  N   N1        1.0  0.48372  0.38350  0.05558  1.0000
  N   N2        1.0  0.61644  0.10003  0.05564  1.0000
  N   N3        1.0  0.89981  0.51630  0.05602  1.0000
  N   N4        1.0  0.51625  0.61646  0.05541  1.0000
  N   N5        1.0  0.38337  0.89979  0.05555  1.0000
  N   N6        1.0  0.10011  0.48362  0.05557  1.0000
  N   N7        1.0  0.38298  0.48166  0.06501  1.0000
  N   N8        1.0  0.51824  0.90124  0.06516  1.0000
  N   N9        1.0  0.09852  0.61695  0.06550  1.0000
  N   N10       1.0  0.61700  0.51831  0.06500  1.0000
  N   N11       1.0  0.48168  0.09867  0.06555  1.0000
  N   N12       1.0  0.90127  0.38286  0.06399  1.0000
  N   N13       1.0  0.48366  0.38352  0.55517  1.0000
  N   N14       1.0  0.61663  0.10015  0.55576  1.0000
  N   N15       1.0  0.89984  0.51637  0.55599  1.0000
  N   N16       1.0  0.51658  0.61663  0.55511  1.0000
  N   N17       1.0  0.38353  0.89984  0.55532  1.0000
  N   N18       1.0  0.10015  0.48368  0.55551  1.0000
  N   N19       1.0  0.38299  0.48178  0.56544  1.0000
  N   N20       1.0  0.51824  0.90127  0.56542  1.0000
  N   N21       1.0  0.09878  0.61695  0.56517  1.0000
  N   N22       1.0  0.61699  0.51822  0.56502  1.0000
  N   N23       1.0  0.48181  0.09879  0.56573  1.0000
  N   N24       1.0  0.90127  0.38310  0.56451  1.0000
  O   O1        1.0  0.81024  0.59256  0.14617  1.0000
  O   O2        1.0  0.40762  0.21857  0.12628  1.0000
  O   O3        1.0  0.78067  0.18853  0.11960  1.0000
  O   O4        1.0  0.18981  0.40746  0.13966  1.0000
  O   O5        1.0  0.59241  0.78142  0.13314  1.0000
  O   O6        1.0  0.21680  0.80963  0.14629  1.0000
  O   O7        1.0  0.82867  0.57065  0.26114  1.0000
  O   O8        1.0  0.42850  0.25722  0.25426  1.0000
  O   O9        1.0  0.74302  0.17150  0.25442  1.0000
  O   O10       1.0  0.17109  0.42910  0.25507  1.0000
  O   O11       1.0  0.57102  0.74291  0.26151  1.0000
  O   O12       1.0  0.25789  0.82905  0.25499  1.0000
  O   O13       1.0  0.68644  0.45922  0.20707  1.0000
  O   O14       1.0  0.54084  0.22731  0.20707  1.0000
  O   O15       1.0  0.77269  0.31345  0.20714  1.0000
  O   O16       1.0  0.31348  0.54084  0.20713  1.0000
  O   O17       1.0  0.45885  0.77242  0.20710  1.0000
  O   O18       1.0  0.22740  0.68652  0.20694  1.0000
  O   O19       1.0  0.70940  0.44543  0.07342  1.0000
  O   O20       1.0  0.55455  0.26398  0.07330  1.0000
  O   O21       1.0  0.73600  0.29054  0.07337  1.0000
  O   O22       1.0  0.29058  0.55459  0.07323  1.0000
  O   O23       1.0  0.44536  0.73582  0.07308  1.0000
  O   O24       1.0  0.26407  0.70948  0.07324  1.0000
  O   O25       1.0  0.81164  0.59151  0.61854  1.0000
  O   O26       1.0  0.40756  0.21761  0.63335  1.0000
  O   O27       1.0  0.78212  0.18970  0.62878  1.0000
  O   O28       1.0  0.18853  0.40788  0.62654  1.0000
  O   O29       1.0  0.59215  0.78177  0.62658  1.0000
  O   O30       1.0  0.21866  0.81070  0.62386  1.0000
  O   O31       1.0  0.82777  0.57124  0.76086  1.0000
  O   O32       1.0  0.42851  0.25724  0.75443  1.0000
  O   O33       1.0  0.74309  0.17149  0.75477  1.0000
  O   O34       1.0  0.17190  0.42895  0.76108  1.0000
  O   O35       1.0  0.57151  0.74312  0.75453  1.0000
  O   O36       1.0  0.25682  0.82837  0.75531  1.0000
  O   O37       1.0  0.68625  0.45933  0.71355  1.0000
  O   O38       1.0  0.54120  0.22756  0.70709  1.0000
  O   O39       1.0  0.77274  0.31338  0.71339  1.0000
  O   O40       1.0  0.31344  0.54063  0.71333  1.0000
  O   O41       1.0  0.45911  0.77287  0.70716  1.0000
  O   O42       1.0  0.22712  0.68645  0.71341  1.0000
  O   O43       1.0  0.70928  0.44453  0.58680  1.0000
  O   O44       1.0  0.55515  0.26506  0.57964  1.0000
  O   O45       1.0  0.73594  0.29066  0.57979  1.0000
  O   O46       1.0  0.29073  0.55473  0.58008  1.0000
  O   O47       1.0  0.44469  0.73516  0.57996  1.0000
  O   O48       1.0  0.26493  0.70943  0.58663  1.0000
  C  Sn1       1.0  0.41653  0.45938  0.01729  1.0000
  C   C133      1.0  0.40719  0.47464  0.08858  1.0000
  C  Sn2       1.0  0.42565  0.49767  0.16329  1.0000
  C  Sn3       1.0  0.45404  0.50562  0.16675  1.0000
  C   C134      1.0  0.46336  0.49036  0.09547  1.0000
  C  Sn4       1.0  0.44492  0.46733  0.02075  1.0000
  O  Te1       1.0  0.39771  0.43665  0.94326  1.0000
  O  Te2       1.0  0.41583  0.51259  0.23378  1.0000
  O  Te3       1.0  0.47286  0.52858  0.24087  1.0000
  O  Te4       1.0  0.45473  0.45262  0.95027  1.0000
  Mg  Mg1       1.0  0.44951  0.54230  0.32006  1.0000
  Mg  Mg2       1.0  0.42107  0.42293  0.86391  1.0000
  C  Sn5       1.0  0.52711  0.96529  0.97220  1.0000
  C   C135      1.0  0.51262  0.97156  0.06563  1.0000
  C  Sn6       1.0  0.50156  0.95537  0.17993  1.0000
  C  Sn7       1.0  0.50507  0.93224  0.20134  1.0000
  C   C136      1.0  0.51955  0.92577  0.10796  1.0000
  C  Sn8       1.0  0.53062  0.94216  0.99362  1.0000
  O  Te5       1.0  0.53799  0.98176  0.85866  1.0000
  O  Te6       1.0  0.48715  0.96226  0.27189  1.0000
  O  Te7       1.0  0.49418  0.91577  0.31500  1.0000
  O  Te8       1.0  0.54502  0.93529  0.90171  1.0000
  Mg  Mg3       1.0  0.47619  0.93353  0.41121  1.0000
  Mg  Mg4       1.0  0.55601  0.96401  0.76240  1.0000
  C  Sn9       1.0  0.07050  0.56325  0.16069  1.0000
  C   C137      1.0  0.07573  0.58546  0.07789  1.0000
  C  Sn10      1.0  0.05408  0.58601  0.01103  1.0000
  C  Sn11      1.0  0.02664  0.56392  0.02733  1.0000
  C   C138      1.0  0.02142  0.54173  0.11010  1.0000
  C  Sn12      1.0  0.04305  0.54115  0.17699  1.0000
  O  Te9       1.0  0.09246  0.56313  0.22656  1.0000
  O  Te10      1.0  0.05983  0.60865  0.92875  1.0000
  O  Te11      1.0  0.00468  0.56427  0.96137  1.0000
  O  Te12      1.0  0.03732  0.51875  0.25924  1.0000
  Mg  Mg5       1.0  0.02295  0.59938  0.86025  1.0000
  Mg  Mg6       1.0  0.07418  0.52801  0.32785  1.0000
  C  Sn13      1.0  0.58347  0.54019  0.01807  1.0000
  C   C139      1.0  0.59276  0.52486  0.08890  1.0000
  C  Sn14      1.0  0.57425  0.50177  0.16290  1.0000
  C  Sn15      1.0  0.54586  0.49382  0.16612  1.0000
  C   C140      1.0  0.53658  0.50913  0.09531  1.0000
  C  Sn16      1.0  0.55508  0.53223  0.02129  1.0000
  O  Te13      1.0  0.60234  0.56342  0.94476  1.0000
  O  Te14      1.0  0.58403  0.48678  0.23293  1.0000
  O  Te15      1.0  0.52699  0.47078  0.23952  1.0000
  O  Te16      1.0  0.54532  0.54743  0.95128  1.0000
  Mg  Mg7       1.0  0.55029  0.45700  0.31830  1.0000
  Mg  Mg8       1.0  0.57903  0.57720  0.86582  1.0000
  C  Sn17      1.0  0.49534  0.05009  0.21905  1.0000
  C   C141      1.0  0.48255  0.02670  0.13735  1.0000
  C  Sn18      1.0  0.47071  0.02756  0.01588  1.0000
  C  Sn19      1.0  0.47170  0.05255  0.97515  1.0000
  C   C142      1.0  0.48449  0.07570  0.05681  1.0000
  C  Sn20      1.0  0.49633  0.07486  0.17833  1.0000
  O  Te17      1.0  0.50704  0.04875  0.34008  1.0000
  O  Te18      1.0  0.45803  0.00413  0.93592  1.0000
  O  Te19      1.0  0.45998  0.05386  0.85401  1.0000
  O  Te20      1.0  0.50901  0.09849  0.25825  1.0000
  Mg  Mg9       1.0  0.44505  0.01622  0.77979  1.0000
  Mg  Mg10      1.0  0.52201  0.08643  0.41436  1.0000
  C  Sn21      1.0  0.92937  0.43650  0.16054  1.0000
  C   C143      1.0  0.92408  0.41436  0.07686  1.0000
  C  Sn22      1.0  0.94567  0.41384  0.00919  1.0000
  C  Sn23      1.0  0.97314  0.43590  0.02556  1.0000
  C   C144      1.0  0.97842  0.45803  0.10921  1.0000
  C  Sn24      1.0  0.95683  0.45857  0.17690  1.0000
  O  Te21      1.0  0.90746  0.43659  0.22721  1.0000
  O  Te22      1.0  0.93987  0.39170  0.92604  1.0000
  O  Te23      1.0  0.99506  0.43602  0.95879  1.0000
  O  Te24      1.0  0.96263  0.48090  0.26003  1.0000
  Mg  Mg11      1.0  0.97670  0.40100  0.85664  1.0000
  Mg  Mg12      1.0  0.92582  0.47161  0.32952  1.0000
  C  Sn25      1.0  0.47521  0.43549  0.20758  1.0000
  C   C145      1.0  0.48926  0.45856  0.12497  1.0000
  C  Sn26      1.0  0.49974  0.45628  0.00184  1.0000
  C  Sn27      1.0  0.49610  0.43062  0.96037  1.0000
  C   C146      1.0  0.48205  0.40734  0.04294  1.0000
  C  Sn28      1.0  0.47156  0.40960  0.16611  1.0000
  O  Te25      1.0  0.46490  0.43824  0.33025  1.0000
  O  Te26      1.0  0.51372  0.47986  0.92100  1.0000
  O  Te27      1.0  0.50642  0.42788  0.83759  1.0000
  O  Te28      1.0  0.45759  0.38626  0.24691  1.0000
  Mg  Mg13      1.0  0.52397  0.46567  0.76267  1.0000
  Mg  Mg14      1.0  0.44732  0.40043  0.40522  1.0000
  C  Sn29      1.0  0.58472  0.04636  0.15101  1.0000
  C   C147      1.0  0.59209  0.06866  0.06505  1.0000
  C  Sn30      1.0  0.57183  0.07137  0.99520  1.0000
  C  Sn31      1.0  0.54359  0.05094  0.01167  1.0000
  C   C148      1.0  0.53623  0.02866  0.09760  1.0000
  C  Sn32      1.0  0.55649  0.02614  0.16748  1.0000
  O  Te29      1.0  0.60533  0.04428  0.21983  1.0000
  O  Te30      1.0  0.57970  0.09385  0.90979  1.0000
  O  Te31      1.0  0.52298  0.05325  0.94275  1.0000
  O  Te32      1.0  0.54862  0.00369  0.25285  1.0000
  Mg  Mg15      1.0  0.54404  0.08762  0.83797  1.0000
  Mg  Mg16      1.0  0.58427  0.00991  0.32478  1.0000
  C  Sn33      1.0  0.95194  0.50315  0.95859  1.0000
  C   C149      1.0  0.97285  0.51554  0.05413  1.0000
  C  Sn34      1.0  0.96862  0.52701  0.16956  1.0000
  C  Sn35      1.0  0.94295  0.52585  0.18998  1.0000
  C   C150      1.0  0.92206  0.51325  0.09449  1.0000
  C  Sn36      1.0  0.92627  0.50199  0.97901  1.0000
  O  Te33      1.0  0.95662  0.49181  0.84394  1.0000
  O  Te34      1.0  0.98984  0.53951  0.26363  1.0000
  O  Te35      1.0  0.93829  0.53720  0.30474  1.0000
  O  Te36      1.0  0.90507  0.48950  0.88500  1.0000
  Mg  Mg17      1.0  0.97353  0.55200  0.40378  1.0000
  Mg  Mg18      1.0  0.92135  0.47699  0.74484  1.0000
  C  Sn37      1.0  0.50320  0.55120  0.95799  1.0000
  C   C151      1.0  0.51582  0.54271  0.05345  1.0000
  C  Sn38      1.0  0.52726  0.55842  0.16887  1.0000
  C  Sn39      1.0  0.52604  0.58289  0.18937  1.0000
  C   C152      1.0  0.51342  0.59115  0.09397  1.0000
  C  Sn40      1.0  0.50198  0.57567  0.97849  1.0000
  O  Te37      1.0  0.49189  0.53518  0.84334  1.0000
  O  Te38      1.0  0.53979  0.54974  0.26285  1.0000
  O  Te39      1.0  0.53736  0.59891  0.30413  1.0000
  O  Te40      1.0  0.48945  0.58434  0.88456  1.0000
  Mg  Mg19      1.0  0.55222  0.57853  0.40304  1.0000
  Mg  Mg20      1.0  0.47700  0.55555  0.74437  1.0000
  C  Sn41      1.0  0.41507  0.95350  0.15108  1.0000
  C   C153      1.0  0.40771  0.93117  0.06503  1.0000
  C  Sn42      1.0  0.42799  0.92890  0.99506  1.0000
  C  Sn43      1.0  0.45621  0.94891  0.01151  1.0000
  C   C154      1.0  0.46356  0.97122  0.09753  1.0000
  C  Sn44      1.0  0.44330  0.97373  0.16753  1.0000
  O  Te41      1.0  0.39445  0.95557  0.22003  1.0000
  O  Te42      1.0  0.42012  0.90640  0.90956  1.0000
  O  Te43      1.0  0.47684  0.94704  0.94247  1.0000
  O  Te44      1.0  0.45116  0.99621  0.25300  1.0000
  Mg  Mg21      1.0  0.45579  0.91264  0.83759  1.0000
  Mg  Mg22      1.0  0.41550  0.98998  0.32507  1.0000
  C  Sn45      1.0  0.04644  0.46162  0.15127  1.0000
  C   C155      1.0  0.06872  0.47653  0.06508  1.0000
  C  Sn46      1.0  0.07117  0.49946  0.99498  1.0000
  C  Sn47      1.0  0.05092  0.50722  0.01144  1.0000
  C   C156      1.0  0.02865  0.49231  0.09760  1.0000
  C  Sn48      1.0  0.02619  0.46959  0.16772  1.0000
  O  Te45      1.0  0.04441  0.43898  0.22034  1.0000
  O  Te46      1.0  0.09363  0.51405  0.90935  1.0000
  O  Te47      1.0  0.05297  0.53009  0.94227  1.0000
  O  Te48      1.0  0.00375  0.45502  0.25332  1.0000
  Mg  Mg23      1.0  0.08732  0.54340  0.83724  1.0000
  Mg  Mg24      1.0  0.01004  0.42567  0.32553  1.0000
  C  Sn49      1.0  0.30407  0.47050  0.27951  1.0000
  C   C157      1.0  0.29649  0.48388  0.18500  1.0000
  C  Sn50      1.0  0.31104  0.49318  0.06500  1.0000
  C  Sn51      1.0  0.33362  0.48900  0.03887  1.0000
  C   C158      1.0  0.34119  0.47562  0.13333  1.0000
  C  Sn52      1.0  0.32666  0.46632  0.25338  1.0000
  O  Te49      1.0  0.28923  0.46138  0.39879  1.0000
  O  Te50      1.0  0.30308  0.50673  0.97206  1.0000
  O  Te51      1.0  0.34846  0.49835  0.91947  1.0000
  O  Te52      1.0  0.33460  0.45300  0.34627  1.0000
  Mg  Mg25      1.0  0.32971  0.51539  0.82416  1.0000
  Mg  Mg26      1.0  0.30798  0.44431  0.49417  1.0000
  C  Sn53      1.0  0.54330  0.85489  0.23469  1.0000
  C   C159      1.0  0.52953  0.86452  0.15382  1.0000
  C  Sn54      1.0  0.50765  0.84625  0.07252  1.0000
  C  Sn55      1.0  0.49934  0.81777  0.07209  1.0000
  C   C160      1.0  0.51310  0.80816  0.15293  1.0000
  C  Sn56      1.0  0.53499  0.82641  0.23426  1.0000
  O  Te53      1.0  0.56513  0.87352  0.31518  1.0000
  O  Te54      1.0  0.49421  0.85658  0.99250  1.0000
  O  Te55      1.0  0.47750  0.79936  0.99150  1.0000
  O  Te56      1.0  0.54843  0.81631  0.31426  1.0000
  Mg  Mg27      1.0  0.46564  0.82308  0.90009  1.0000
  Mg  Mg28      1.0  0.57699  0.84979  0.40675  1.0000
  C  Sn57      1.0  0.16636  0.69575  0.28022  1.0000
  C   C161      1.0  0.18729  0.70337  0.18533  1.0000
  C  Sn58      1.0  0.18199  0.68889  0.06503  1.0000
  C  Sn59      1.0  0.15521  0.66632  0.03898  1.0000
  C   C162      1.0  0.13430  0.65872  0.13382  1.0000
  C  Sn60      1.0  0.13958  0.67319  0.25417  1.0000
  O  Te57      1.0  0.17213  0.71053  0.39979  1.0000
  O  Te58      1.0  0.20325  0.69710  0.97172  1.0000
  O  Te59      1.0  0.14946  0.65176  0.91928  1.0000
  O  Te60      1.0  0.11834  0.66521  0.34743  1.0000
  Mg  Mg29      1.0  0.18522  0.67055  0.82351  1.0000
  Mg  Mg30      1.0  0.13635  0.69175  0.49563  1.0000
  C  Sn61      1.0  0.66294  0.49776  0.07468  1.0000
  C   C163      1.0  0.65624  0.51298  0.16251  1.0000
  C  Sn62      1.0  0.67669  0.53392  0.24072  1.0000
  C  Sn63      1.0  0.70442  0.53980  0.23089  1.0000
  C   C164      1.0  0.71112  0.52460  0.14310  1.0000
  C  Sn64      1.0  0.69068  0.50364  0.06485  1.0000
  O  Te61      1.0  0.64217  0.47713  0.99744  1.0000
  O  Te62      1.0  0.66949  0.54885  0.32784  1.0000
  O  Te63      1.0  0.72521  0.56067  0.30823  1.0000
  O  Te64      1.0  0.69787  0.48894  0.97777  1.0000
  Mg  Mg31      1.0  0.70514  0.57526  0.41214  1.0000
  Mg  Mg32      1.0  0.66224  0.46253  0.89337  1.0000
  C  Sn65      1.0  0.48966  0.17342  0.02399  1.0000
  C   C165      1.0  0.47776  0.18402  0.11151  1.0000
  C  Sn66      1.0  0.46754  0.17153  0.23532  1.0000
  C  Sn67      1.0  0.46927  0.14796  0.27246  1.0000
  C   C166      1.0  0.48117  0.13738  0.18497  1.0000
  C  Sn68      1.0  0.49139  0.14986  0.06113  1.0000
  O  Te65      1.0  0.49975  0.18646  0.90072  1.0000
  O  Te66      1.0  0.45573  0.18249  0.32112  1.0000
  O  Te67      1.0  0.45918  0.13515  0.39583  1.0000
  O  Te68      1.0  0.50320  0.13913  0.97537  1.0000
  Mg  Mg33      1.0  0.44492  0.15776  0.47828  1.0000
  Mg  Mg34      1.0  0.51403  0.16385  0.81822  1.0000
  C  Sn69      1.0  0.82646  0.31605  0.02255  1.0000
  C   C167      1.0  0.81588  0.29358  0.11000  1.0000
  C  Sn70      1.0  0.82841  0.29588  0.23375  1.0000
  C  Sn71      1.0  0.85199  0.32118  0.27091  1.0000
  C   C168      1.0  0.86256  0.34363  0.18350  1.0000
  C  Sn72      1.0  0.85005  0.34135  0.05971  1.0000
  O  Te69      1.0  0.81360  0.31350  0.89934  1.0000
  O  Te70      1.0  0.81746  0.27313  0.31947  1.0000
  O  Te71      1.0  0.86485  0.32393  0.39424  1.0000
  O  Te72      1.0  0.86098  0.36430  0.97403  1.0000
  Mg  Mg35      1.0  0.84225  0.28710  0.47658  1.0000
  Mg  Mg36      1.0  0.83620  0.35036  0.81693  1.0000
  C  Sn73      1.0  0.47434  0.30788  0.02467  1.0000
  C   C169      1.0  0.48620  0.29755  0.11373  1.0000
  C  Sn74      1.0  0.49696  0.31079  0.23563  1.0000
  C  Sn75      1.0  0.49581  0.33485  0.26927  1.0000
  C   C170      1.0  0.48395  0.34517  0.18026  1.0000
  C  Sn76      1.0  0.47319  0.33194  0.05831  1.0000
  O  Te73      1.0  0.46371  0.29453  0.90336  1.0000
  O  Te74      1.0  0.50872  0.30008  0.32302  1.0000
  O  Te75      1.0  0.50645  0.34842  0.39070  1.0000
  O  Te76      1.0  0.46143  0.34286  0.97097  1.0000
  Mg  Mg37      1.0  0.52041  0.32589  0.47645  1.0000
  Mg  Mg38      1.0  0.44973  0.31706  0.81755  1.0000
  C  Sn77      1.0  0.68306  0.14521  0.07467  1.0000
  C   C171      1.0  0.66069  0.13880  0.15889  1.0000
  C  Sn78      1.0  0.66009  0.15941  0.23541  1.0000
  C  Sn79      1.0  0.68229  0.18700  0.22755  1.0000
  C   C172      1.0  0.70464  0.19340  0.14336  1.0000
  C  Sn80      1.0  0.70526  0.17280  0.06681  1.0000
  O  Te77      1.0  0.68323  0.12450  0.99907  1.0000
  O  Te78      1.0  0.63751  0.15250  0.31891  1.0000
  O  Te79      1.0  0.68211  0.20793  0.30325  1.0000
  O  Te80      1.0  0.72782  0.17992  0.98333  1.0000
  Mg  Mg39      1.0  0.64678  0.18825  0.40218  1.0000
  Mg  Mg40      1.0  0.71856  0.14419  0.89998  1.0000
  C  Sn81      1.0  0.83352  0.52569  0.02636  1.0000
  C   C173      1.0  0.81130  0.51372  0.11537  1.0000
  C  Sn82      1.0  0.81376  0.50282  0.23674  1.0000
  C  Sn83      1.0  0.83896  0.50392  0.26988  1.0000
  C   C174      1.0  0.86116  0.51589  0.18091  1.0000
  C  Sn84      1.0  0.85872  0.52680  0.05950  1.0000
  O  Te81      1.0  0.83061  0.53668  0.90559  1.0000
  O  Te82      1.0  0.79126  0.49095  0.32409  1.0000
  O  Te83      1.0  0.84186  0.49314  0.39076  1.0000
  O  Te84      1.0  0.88121  0.53889  0.97219  1.0000
  Mg  Mg41      1.0  0.80536  0.47908  0.47669  1.0000
  Mg  Mg42      1.0  0.86714  0.55077  0.81960  1.0000
  C  Sn85      1.0  0.50505  0.68341  0.27896  1.0000
  C   C175      1.0  0.51919  0.70499  0.18822  1.0000
  C  Sn86      1.0  0.52895  0.70040  0.06793  1.0000
  C  Sn87      1.0  0.52447  0.67367  0.03767  1.0000
  C   C176      1.0  0.51034  0.65211  0.12837  1.0000
  C  Sn88      1.0  0.50057  0.65669  0.24870  1.0000
  O  Te85      1.0  0.49547  0.68848  0.39860  1.0000
  O  Te86      1.0  0.54304  0.72251  0.97881  1.0000
  O  Te87      1.0  0.53407  0.66884  0.91791  1.0000
  O  Te88      1.0  0.48649  0.63481  0.33778  1.0000
  Mg  Mg43      1.0  0.55210  0.70531  0.82873  1.0000
  Mg  Mg44      1.0  0.47741  0.65198  0.48784  1.0000
  C  Sn89      1.0  0.31679  0.85462  0.07529  1.0000
  C   C177      1.0  0.33923  0.86099  0.15881  1.0000
  C  Sn90      1.0  0.33981  0.84040  0.23519  1.0000
  C  Sn91      1.0  0.31751  0.81285  0.22787  1.0000
  C   C178      1.0  0.29509  0.80648  0.14438  1.0000
  C  Sn92      1.0  0.29448  0.82707  0.06798  1.0000
  O  Te89      1.0  0.31664  0.87576  0.99982  1.0000
  O  Te90      1.0  0.36247  0.84727  0.31799  1.0000
  O  Te91      1.0  0.31767  0.79192  0.30344  1.0000
  O  Te92      1.0  0.27185  0.82042  0.98519  1.0000
  Mg  Mg45      1.0  0.35313  0.81154  0.40134  1.0000
  Mg  Mg46      1.0  0.28117  0.85613  0.90176  1.0000
  C  Sn93      1.0  0.14537  0.46232  0.07472  1.0000
  C   C179      1.0  0.13893  0.47829  0.15872  1.0000
  C  Sn94      1.0  0.15950  0.49947  0.23546  1.0000
  C  Sn95      1.0  0.18708  0.50481  0.22804  1.0000
  C   C180      1.0  0.19351  0.48885  0.14406  1.0000
  C  Sn96      1.0  0.17295  0.46766  0.06729  1.0000
  O  Te93      1.0  0.12448  0.44147  0.99889  1.0000
  O  Te94      1.0  0.15256  0.51516  0.31874  1.0000
  O  Te95      1.0  0.20798  0.52590  0.30396  1.0000
  O  Te96      1.0  0.17989  0.45220  0.98404  1.0000
  Mg  Mg47      1.0  0.18827  0.54159  0.40245  1.0000
  Mg  Mg48      1.0  0.14419  0.42577  0.90024  1.0000
  C  Sn97      1.0  0.43669  0.50729  0.66093  1.0000
  C   C181      1.0  0.41447  0.49040  0.57778  1.0000
  C  Sn98      1.0  0.41388  0.46825  0.51010  1.0000
  C  Sn99      1.0  0.43595  0.46285  0.52592  1.0000
  C   C182      1.0  0.45815  0.47973  0.60904  1.0000
  C  Sn100     1.0  0.45876  0.50189  0.67675  1.0000
  O  Te97      1.0  0.43684  0.52932  0.72763  1.0000
  O  Te98      1.0  0.39145  0.45166  0.42748  1.0000
  O  Te99      1.0  0.43578  0.44080  0.45913  1.0000
  O  Te100     1.0  0.48117  0.51847  0.75934  1.0000
  Mg  Mg49      1.0  0.40068  0.42410  0.35782  1.0000
  Mg  Mg50      1.0  0.47195  0.54603  0.82910  1.0000
  C  Sn101     1.0  0.54031  0.95685  0.51731  1.0000
  C   C183      1.0  0.52511  0.93233  0.58901  1.0000
  C  Sn102     1.0  0.50215  0.92784  0.66403  1.0000
  C  Sn103     1.0  0.49419  0.94827  0.66740  1.0000
  C   C184      1.0  0.50938  0.97277  0.59571  1.0000
  C  Sn104     1.0  0.53235  0.97729  0.52067  1.0000
  O  Te101     1.0  0.56319  0.96091  0.44298  1.0000
  O  Te102     1.0  0.48729  0.90316  0.73492  1.0000
  O  Te103     1.0  0.47129  0.94419  0.74181  1.0000
  O  Te104     1.0  0.04710  0.00194  0.44979  1.0000
  Mg  Mg51      1.0  0.45766  0.90722  0.82152  1.0000
  Mg  Mg52      1.0  0.57683  0.99790  0.36312  1.0000
  C  Sn105     1.0  0.04316  0.58343  0.51732  1.0000
  C   C185      1.0  0.06771  0.59281  0.58892  1.0000
  C  Sn106     1.0  0.07223  0.57440  0.66413  1.0000
  C  Sn107     1.0  0.05178  0.54602  0.66780  1.0000
  C   C186      1.0  0.02724  0.53665  0.59622  1.0000
  C  Sn108     1.0  0.02271  0.55505  0.52099  1.0000
  O  Te105     1.0  0.03909  0.60220  0.44280  1.0000
  O  Te106     1.0  0.09694  0.58426  0.73492  1.0000
  O  Te107     1.0  0.05587  0.52725  0.74241  1.0000
  O  Te108     1.0  0.99802  0.54520  0.45022  1.0000
  Mg  Mg53      1.0  0.09289  0.55064  0.82186  1.0000
  Mg  Mg54      1.0  0.00205  0.57879  0.36319  1.0000
  C  Sn109     1.0  0.56337  0.49287  0.66148  1.0000
  C   C187      1.0  0.58553  0.50961  0.57780  1.0000
  C  Sn110     1.0  0.58608  0.53165  0.50950  1.0000
  C  Sn111     1.0  0.56403  0.53710  0.52522  1.0000
  C   C188      1.0  0.54189  0.52037  0.60887  1.0000
  C  Sn112     1.0  0.54132  0.49831  0.67720  1.0000
  O  Te109     1.0  0.56325  0.47095  0.72879  1.0000
  O  Te110     1.0  0.60845  0.54809  0.42637  1.0000
  O  Te111     1.0  0.56417  0.55904  0.45782  1.0000
  O  Te112     1.0  0.51896  0.48188  0.76030  1.0000
  Mg  Mg55      1.0  0.59919  0.57556  0.35597  1.0000
  Mg  Mg56      1.0  0.52821  0.45443  0.83081  1.0000
  C  Sn113     1.0  0.45970  0.04315  0.51805  1.0000
  C   C189      1.0  0.47495  0.06773  0.58943  1.0000
  C  Sn114     1.0  0.49798  0.07230  0.66402  1.0000
  C  Sn115     1.0  0.50594  0.05188  0.66728  1.0000
  C   C190      1.0  0.49070  0.02731  0.59592  1.0000
  C  Sn116     1.0  0.46766  0.02272  0.52131  1.0000
  O  Te113     1.0  0.43676  0.03902  0.44414  1.0000
  O  Te114     1.0  0.51290  0.09704  0.73459  1.0000
  O  Te115     1.0  0.52891  0.05602  0.74127  1.0000
  O  Te116     1.0  0.95286  0.99800  0.45075  1.0000
  Mg  Mg57      1.0  0.54260  0.09307  0.82065  1.0000
  Mg  Mg58      1.0  0.42306  0.00196  0.36461  1.0000
  C  Sn117     1.0  0.92946  0.43673  0.66093  1.0000
  C   C191      1.0  0.92412  0.41456  0.57734  1.0000
  C  Sn118     1.0  0.94568  0.41400  0.50952  1.0000
  C  Sn119     1.0  0.97316  0.43606  0.52563  1.0000
  C   C192      1.0  0.97849  0.45821  0.60919  1.0000
  C  Sn120     1.0  0.95694  0.45878  0.67704  1.0000
  O  Te117     1.0  0.90758  0.43685  0.72776  1.0000
  O  Te118     1.0  0.93984  0.39162  0.42647  1.0000
  O  Te119     1.0  0.99504  0.43592  0.45871  1.0000
  O  Te120     1.0  0.96277  0.48115  0.76006  1.0000
  Mg  Mg59      1.0  0.97663  0.40088  0.35678  1.0000
  Mg  Mg60      1.0  0.92600  0.47190  0.82985  1.0000
  C  Sn121     1.0  0.49697  0.44885  0.45815  1.0000
  C   C193      1.0  0.48420  0.45711  0.55309  1.0000
  C  Sn122     1.0  0.47256  0.44137  0.66810  1.0000
  C  Sn123     1.0  0.47371  0.41687  0.68870  1.0000
  C   C194      1.0  0.48647  0.40862  0.59381  1.0000
  C  Sn124     1.0  0.49812  0.42435  0.47875  1.0000
  O  Te121     1.0  0.50847  0.46490  0.34391  1.0000
  O  Te122     1.0  0.45990  0.45005  0.76158  1.0000
  O  Te123     1.0  0.46219  0.40082  0.80306  1.0000
  O  Te124     1.0  0.51077  0.41568  0.38533  1.0000
  Mg  Mg61      1.0  0.44722  0.42121  0.90134  1.0000
  Mg  Mg62      1.0  0.52347  0.44451  0.24557  1.0000
  C  Sn125     1.0  0.58492  0.04641  0.65040  1.0000
  C   C195      1.0  0.59227  0.06878  0.56489  1.0000
  C  Sn126     1.0  0.57199  0.07132  0.49547  1.0000
  C  Sn127     1.0  0.54376  0.05110  0.51190  1.0000
  C   C196      1.0  0.53641  0.02875  0.59738  1.0000
  C  Sn128     1.0  0.55669  0.02618  0.66683  1.0000
  O  Te125     1.0  0.60554  0.04428  0.71881  1.0000
  O  Te126     1.0  0.57985  0.09386  0.41051  1.0000
  O  Te127     1.0  0.52313  0.05324  0.44340  1.0000
  O  Te128     1.0  0.54884  0.00366  0.75175  1.0000
  Mg  Mg63      1.0  0.54417  0.08768  0.33915  1.0000
  Mg  Mg64      1.0  0.58450  0.00983  0.82322  1.0000
  C  Sn129     1.0  0.95352  0.53837  0.65130  1.0000
  C   C197      1.0  0.93123  0.52342  0.56515  1.0000
  C  Sn130     1.0  0.92877  0.50067  0.49509  1.0000
  C  Sn131     1.0  0.94902  0.49269  0.51153  1.0000
  C   C198      1.0  0.97129  0.50765  0.59764  1.0000
  C  Sn132     1.0  0.97377  0.53040  0.66773  1.0000
  O  Te129     1.0  0.95556  0.56104  0.72033  1.0000
  O  Te130     1.0  0.90631  0.48604  0.40951  1.0000
  O  Te131     1.0  0.94697  0.47001  0.44240  1.0000
  O  Te132     1.0  0.99621  0.54502  0.75329  1.0000
  Mg  Mg65      1.0  0.91260  0.45665  0.33742  1.0000
  Mg  Mg66      1.0  0.98993  0.57441  0.82547  1.0000
  C  Sn133     1.0  0.49123  0.56105  0.50250  1.0000
  C   C199      1.0  0.50780  0.58516  0.57515  1.0000
  C  Sn134     1.0  0.52970  0.58754  0.65233  1.0000
  C  Sn135     1.0  0.53517  0.56536  0.65693  1.0000
  C   C200      1.0  0.51861  0.54127  0.58430  1.0000
  C  Sn136     1.0  0.49670  0.53888  0.50710  1.0000
  O  Te133     1.0  0.46945  0.55913  0.42601  1.0000
  O  Te134     1.0  0.54597  0.61184  0.72414  1.0000
  O  Te135     1.0  0.55697  0.56730  0.73351  1.0000
  O  Te136     1.0  0.48043  0.51460  0.43531  1.0000
  Mg  Mg67      1.0  0.57328  0.60459  0.81373  1.0000
  Mg  Mg68      1.0  0.45313  0.52183  0.34564  1.0000
  C  Sn137     1.0  0.44881  0.95199  0.45822  1.0000
  C   C201      1.0  0.45710  0.97295  0.55357  1.0000
  C  Sn138     1.0  0.44139  0.96876  0.66887  1.0000
  C  Sn139     1.0  0.41690  0.94309  0.68934  1.0000
  C   C202      1.0  0.40863  0.92215  0.59403  1.0000
  C  Sn140     1.0  0.42432  0.92632  0.47869  1.0000
  O  Te137     1.0  0.46484  0.95663  0.34370  1.0000
  O  Te138     1.0  0.45008  0.99003  0.76275  1.0000
  O  Te139     1.0  0.40087  0.93847  0.80397  1.0000
  O  Te140     1.0  0.41564  0.90507  0.38485  1.0000
  Mg  Mg69      1.0  0.42128  0.97376  0.90278  1.0000
  Mg  Mg70      1.0  0.44444  0.92131  0.24483  1.0000
  C  Sn141     1.0  0.06987  0.50897  0.50305  1.0000
  C   C203      1.0  0.07742  0.49242  0.57554  1.0000
  C  Sn142     1.0  0.05789  0.47049  0.65252  1.0000
  C  Sn143     1.0  0.03022  0.46497  0.65707  1.0000
  C   C204      1.0  0.02268  0.48151  0.58459  1.0000
  C  Sn144     1.0  0.04220  0.50345  0.50760  1.0000
  O  Te141     1.0  0.08973  0.53078  0.42676  1.0000
  O  Te142     1.0  0.06593  0.45424  0.72418  1.0000
  O  Te143     1.0  0.01035  0.44314  0.73344  1.0000
  O  Te144     1.0  0.03417  0.51968  0.43595  1.0000
  Mg  Mg71      1.0  0.03136  0.42688  0.81352  1.0000
  Mg  Mg72      1.0  0.06872  0.54704  0.34653  1.0000
  C  Sn145     1.0  0.33716  0.50248  0.57707  1.0000
  C   C205      1.0  0.34367  0.48696  0.66362  1.0000
  C  Sn146     1.0  0.32306  0.46576  0.73990  1.0000
  C  Sn147     1.0  0.29535  0.45992  0.72941  1.0000
  C   C206      1.0  0.28884  0.47542  0.64289  1.0000
  C  Sn148     1.0  0.30945  0.49664  0.56658  1.0000
  O  Te145     1.0  0.35810  0.52358  0.50176  1.0000
  O  Te146     1.0  0.33007  0.45054  0.82577  1.0000
  O  Te147     1.0  0.27440  0.43880  0.80482  1.0000
  O  Te148     1.0  0.30244  0.51185  0.48074  1.0000
  Mg  Mg73      1.0  0.29425  0.42385  0.90757  1.0000
  Mg  Mg74      1.0  0.33824  0.53853  0.39884  1.0000
  C  Sn149     1.0  0.49747  0.83480  0.57513  1.0000
  C   C207      1.0  0.51287  0.85670  0.66273  1.0000
  C  Sn150     1.0  0.53392  0.85713  0.73974  1.0000
  C  Sn151     1.0  0.53970  0.83523  0.72893  1.0000
  C   C208      1.0  0.52430  0.81334  0.64137  1.0000
  C  Sn152     1.0  0.50325  0.81289  0.56432  1.0000
  O  Te149     1.0  0.47653  0.83480  0.49910  1.0000
  O  Te150     1.0  0.54903  0.87924  0.82665  1.0000
  O  Te151     1.0  0.56066  0.83524  0.80507  1.0000
  O  Te152     1.0  0.48814  0.79080  0.47744  1.0000
  Mg  Mg75      1.0  0.57551  0.86991  0.90915  1.0000
  Mg  Mg76      1.0  0.46167  0.80012  0.39485  1.0000
  C  Sn153     1.0  0.14506  0.68865  0.73263  1.0000
  C   C209      1.0  0.13551  0.66509  0.65277  1.0000
  C  Sn154     1.0  0.15386  0.66127  0.57317  1.0000
  C  Sn155     1.0  0.18236  0.68140  0.57345  1.0000
  C   C210      1.0  0.19190  0.70494  0.65328  1.0000
  C  Sn156     1.0  0.17356  0.70878  0.73290  1.0000
  O  Te153     1.0  0.12634  0.69205  0.81142  1.0000
  O  Te154     1.0  0.14382  0.63755  0.49414  1.0000
  O  Te155     1.0  0.20108  0.67798  0.49456  1.0000
  O  Te156     1.0  0.18358  0.73248  0.81191  1.0000
  Mg  Mg77      1.0  0.17744  0.64224  0.40398  1.0000
  Mg  Mg78      1.0  0.14999  0.72781  0.90216  1.0000
  C  Sn157     1.0  0.69609  0.52986  0.77924  1.0000
  C   C211      1.0  0.70353  0.51614  0.68575  1.0000
  C  Sn158     1.0  0.68885  0.50649  0.56625  1.0000
  C  Sn159     1.0  0.66628  0.51065  0.53959  1.0000
  C   C212      1.0  0.65886  0.52436  0.63303  1.0000
  C  Sn160     1.0  0.67352  0.53402  0.75257  1.0000
  O  Te157     1.0  0.71106  0.53933  0.89803  1.0000
  O  Te158     1.0  0.69667  0.49283  0.47434  1.0000
  O  Te159     1.0  0.65131  0.50116  0.42068  1.0000
  O  Te160     1.0  0.66571  0.54768  0.84444  1.0000
  Mg  Mg79      1.0  0.66990  0.48375  0.32677  1.0000
  Mg  Mg80      1.0  0.69248  0.55677  0.99200  1.0000
  C  Sn161     1.0  0.50254  0.16529  0.57625  1.0000
  C   C213      1.0  0.48714  0.14337  0.66355  1.0000
  C  Sn162     1.0  0.46610  0.14291  0.74082  1.0000
  C  Sn163     1.0  0.46032  0.16482  0.73056  1.0000
  C   C214      1.0  0.47571  0.18672  0.64328  1.0000
  C  Sn164     1.0  0.49676  0.18719  0.56599  1.0000
  O  Te161     1.0  0.52348  0.16531  0.49996  1.0000
  O  Te162     1.0  0.45100  0.12078  0.82742  1.0000
  O  Te163     1.0  0.43936  0.16478  0.80694  1.0000
  O  Te164     1.0  0.51186  0.20931  0.47942  1.0000
  Mg  Mg81      1.0  0.42452  0.13009  0.91045  1.0000
  Mg  Mg82      1.0  0.53833  0.20001  0.39629  1.0000
  C  Sn165     1.0  0.83388  0.30404  0.77875  1.0000
  C   C215      1.0  0.81274  0.29653  0.68523  1.0000
  C  Sn166     1.0  0.81776  0.31118  0.56575  1.0000
  C  Sn167     1.0  0.84447  0.33380  0.53915  1.0000
  C   C216      1.0  0.86560  0.34129  0.63262  1.0000
  C  Sn168     1.0  0.86060  0.32666  0.75214  1.0000
  O  Te165     1.0  0.82840  0.28910  0.89752  1.0000
  O  Te166     1.0  0.79629  0.30329  0.47381  1.0000
  O  Te167     1.0  0.84994  0.34874  0.42026  1.0000
  O  Te168     1.0  0.88205  0.33453  0.84404  1.0000
  Mg  Mg83      1.0  0.81397  0.33005  0.32629  1.0000
  Mg  Mg84      1.0  0.86439  0.30778  0.99155  1.0000
  C  Sn169     1.0  0.49472  0.31657  0.77860  1.0000
  C   C217      1.0  0.48069  0.29503  0.68736  1.0000
  C  Sn170     1.0  0.47103  0.29965  0.56698  1.0000
  C  Sn171     1.0  0.47550  0.32638  0.53712  1.0000
  C   C218      1.0  0.48952  0.34790  0.62832  1.0000
  C  Sn172     1.0  0.49918  0.34329  0.74875  1.0000
  O  Te169     1.0  0.50420  0.31147  0.89834  1.0000
  O  Te170     1.0  0.45706  0.27779  0.47735  1.0000
  O  Te171     1.0  0.46600  0.33146  0.41728  1.0000
  O  Te172     1.0  0.51316  0.36514  0.83833  1.0000
  Mg  Mg85      1.0  0.44810  0.29503  0.32734  1.0000
  Mg  Mg86      1.0  0.52213  0.34793  0.98833  1.0000
  C  Sn173     1.0  0.66257  0.17135  0.72997  1.0000
  C   C219      1.0  0.65320  0.14805  0.64841  1.0000
  C  Sn174     1.0  0.67179  0.14423  0.57074  1.0000
  C  Sn175     1.0  0.70036  0.16410  0.57473  1.0000
  C   C220      1.0  0.70972  0.18738  0.65626  1.0000
  C  Sn176     1.0  0.69113  0.19122  0.73396  1.0000
  O  Te173     1.0  0.64361  0.17474  0.80679  1.0000
  O  Te174     1.0  0.66193  0.12077  0.48994  1.0000
  O  Te175     1.0  0.71932  0.16069  0.49782  1.0000
  O  Te176     1.0  0.70098  0.21466  0.81473  1.0000
  Mg  Mg87      1.0  0.69585  0.12535  0.40364  1.0000
  Mg  Mg88      1.0  0.66709  0.21009  0.90113  1.0000
  C  Sn177     1.0  0.82161  0.50484  0.77968  1.0000
  C   C221      1.0  0.81406  0.51887  0.68887  1.0000
  C  Sn178     1.0  0.82842  0.52870  0.56872  1.0000
  C  Sn179     1.0  0.85078  0.52439  0.53866  1.0000
  C   C222      1.0  0.85832  0.51036  0.62943  1.0000
  C  Sn180     1.0  0.84398  0.50053  0.74962  1.0000
  O  Te177     1.0  0.80697  0.49519  0.89919  1.0000
  O  Te178     1.0  0.82049  0.54267  0.47953  1.0000
  O  Te179     1.0  0.86543  0.53405  0.41904  1.0000
  O  Te180     1.0  0.85189  0.48656  0.83877  1.0000
  Mg  Mg89      1.0  0.84681  0.55188  0.32969  1.0000
  Mg  Mg90      1.0  0.82558  0.47733  0.98860  1.0000
  C  Sn181     1.0  0.49135  0.66251  0.72970  1.0000
  C   C223      1.0  0.50534  0.65319  0.64822  1.0000
  C  Sn182     1.0  0.52768  0.67181  0.57036  1.0000
  C  Sn183     1.0  0.53624  0.70035  0.57408  1.0000
  C   C224      1.0  0.52226  0.70965  0.65554  1.0000
  C  Sn184     1.0  0.49991  0.69104  0.73342  1.0000
  O  Te181     1.0  0.46907  0.64353  0.80670  1.0000
  O  Te182     1.0  0.54133  0.66201  0.48965  1.0000
  O  Te183     1.0  0.55853  0.71933  0.49699  1.0000
  O  Te184     1.0  0.48626  0.70083  0.81411  1.0000
  Mg  Mg91      1.0  0.57053  0.69594  0.40302  1.0000
  Mg  Mg92      1.0  0.45707  0.66693  0.90083  1.0000
  C  Sn185     1.0  0.33756  0.82883  0.73064  1.0000
  C   C225      1.0  0.34696  0.85203  0.64860  1.0000
  C  Sn186     1.0  0.32840  0.85574  0.57025  1.0000
  C  Sn187     1.0  0.29984  0.83586  0.57404  1.0000
  C   C226      1.0  0.29045  0.81268  0.65605  1.0000
  C  Sn188     1.0  0.30900  0.80895  0.73443  1.0000
  O  Te185     1.0  0.35649  0.82555  0.80813  1.0000
  O  Te186     1.0  0.33829  0.87910  0.48899  1.0000
  O  Te187     1.0  0.28091  0.83916  0.49646  1.0000
  O  Te188     1.0  0.29912  0.78561  0.81567  1.0000
  Mg  Mg93      1.0  0.30441  0.87439  0.40183  1.0000
  Mg  Mg94      1.0  0.33297  0.79030  0.90292  1.0000
  C  Sn189     1.0  0.16644  0.47429  0.52591  1.0000
  C   C227      1.0  0.18866  0.48631  0.61494  1.0000
  C  Sn190     1.0  0.18617  0.49721  0.73642  1.0000
  C  Sn191     1.0  0.16095  0.49606  0.76965  1.0000
  C   C228      1.0  0.13875  0.48404  0.68066  1.0000
  C  Sn192     1.0  0.14122  0.47313  0.55914  1.0000
  O  Te189     1.0  0.16939  0.46352  0.40503  1.0000
  O  Te190     1.0  0.20867  0.50914  0.82378  1.0000
  O  Te191     1.0  0.15801  0.50684  0.89064  1.0000
  O  Te192     1.0  0.11873  0.46121  0.47182  1.0000
  Mg  Mg95      1.0  0.19453  0.52097  0.97655  1.0000
  Mg  Mg96      1.0  0.13285  0.44935  0.31907  1.0000
