data_image0
_chemical_formula_structural       H72C132N24O48C2Sn2C2HTe2HMgC2Sn2C2HTe2HMgC2Sn2C2HTe2HMgC2Sn2C2HTe2HMgC2Sn2C2HTe2HMgC2Sn2C2HTe2HMgC2Sn2C2HTe2HMgC2Sn2C2HTe2HMgC2Sn2C2HTe2HMgC2Sn2C2HTe2HMgC2Sn2C2HTe2HMgC2Sn2C2HTe2HMgC2Sn2C2HTe2HMgC2Sn2C2HTe2HMgC2Sn2C2HTe2HMgC2Sn2C2HTe2HMgC2Sn2C2HTe2HMgC2Sn2C2HTe2HMgC2Sn2C2HTe2HMgC2Sn2C2HTe2HMgC2Sn2C2HTe2HMgC2Sn2C2HTe2HMgC2Sn2C2HTe2HMgC2Sn2C2HTe2HMgC2Sn2C2HTe2HMgC2Sn2C2HTe2HMgC2Sn2C2HTe2HMgC2Sn2C2HTe2HMgC2Sn2C2HTe2HMgC2Sn2C2HTe2HMgC2Sn2C2HTe2HMgC2Sn2C2HTe2HMgC2Sn2C2HTe2HMgC2Sn2C2HTe2HMgC2Sn2C2HTe2HMgC2Sn2C2HTe2HMgC2Sn2C2HTe2HMgC2Sn2C2HTe2HMgC2Sn2C2HTe2HMgC2Sn2C2HTe2HMgC2Sn2C2HTe2HMgC2Sn2C2HTe2HMgC2Sn2C2HTe2HMgC2Sn2C2HTe2HMgC2Sn2C2HTe2HMgC2Sn2C2HTe2HMgC2Sn2C2HTe2HMgC2Sn2C2HTe2HMg
_chemical_formula_sum              "H168 C324 N24 O48 Sn96 Te96 Mg48"
_cell_length_a       55.9021
_cell_length_b       55.9089
_cell_length_c       10.0076
_cell_angle_alpha    90.0692
_cell_angle_beta     89.9664
_cell_angle_gamma    120.003

_symmetry_space_group_name_H-M    'P1'
_space_group_IT_number       1

loop_
  _space_group_symop_operation_xyz
  'x, y, z'

loop_
  _atom_site_type_symbol
  _atom_site_label
  _atom_site_symmetry_multiplicity
  _atom_site_fract_x
  _atom_site_fract_y
  _atom_site_fract_z
  _atom_site_occupancy
  H   H1        1.0  0.49587  0.38406  0.25367  1.0000
  H   H2        1.0  0.61594  0.11172  0.25375  1.0000
  H   H3        1.0  0.88816  0.50401  0.25389  1.0000
  H   H4        1.0  0.50395  0.61587  0.25329  1.0000
  H   H5        1.0  0.38396  0.88811  0.25340  1.0000
  H   H6        1.0  0.11176  0.49584  0.25361  1.0000
  H   H7        1.0  0.52584  0.28518  0.13153  1.0000
  H   H8        1.0  0.71471  0.24065  0.13160  1.0000
  H   H9        1.0  0.75933  0.47417  0.12995  1.0000
  H   H10       1.0  0.47413  0.71472  0.13155  1.0000
  H   H11       1.0  0.28511  0.75948  0.12919  1.0000
  H   H12       1.0  0.24062  0.52582  0.12998  1.0000
  H   H13       1.0  0.24116  0.43800  0.15888  1.0000
  H   H14       1.0  0.56190  0.80323  0.15864  1.0000
  H   H15       1.0  0.19659  0.75856  0.16118  1.0000
  H   H16       1.0  0.75882  0.56198  0.16270  1.0000
  H   H17       1.0  0.43795  0.19672  0.15534  1.0000
  H   H18       1.0  0.80310  0.24099  0.15251  1.0000
  H   H19       1.0  0.84290  0.59003  0.27236  1.0000
  H   H20       1.0  0.40906  0.25215  0.26078  1.0000
  H   H21       1.0  0.74763  0.15678  0.25844  1.0000
  H   H22       1.0  0.15677  0.40970  0.26440  1.0000
  H   H23       1.0  0.59041  0.74783  0.26906  1.0000
  H   H24       1.0  0.25249  0.84312  0.26576  1.0000
  H   H25       1.0  0.68894  0.47660  0.24295  1.0000
  H   H26       1.0  0.52349  0.21256  0.24377  1.0000
  H   H27       1.0  0.78752  0.31093  0.24336  1.0000
  H   H28       1.0  0.31089  0.52351  0.24385  1.0000
  H   H29       1.0  0.47616  0.78733  0.24333  1.0000
  H   H30       1.0  0.21238  0.68890  0.24176  1.0000
  H   H31       1.0  0.37224  0.47221  0.26632  1.0000
  H   H32       1.0  0.52775  0.90004  0.26643  1.0000
  H   H33       1.0  0.09994  0.62763  0.26710  1.0000
  H   H34       1.0  0.62763  0.52762  0.26657  1.0000
  H   H35       1.0  0.47213  0.09994  0.26681  1.0000
  H   H36       1.0  0.90003  0.37210  0.26520  1.0000
  H   H37       1.0  0.49585  0.38414  0.75320  1.0000
  H   H38       1.0  0.61607  0.11186  0.75375  1.0000
  H   H39       1.0  0.88817  0.50392  0.75367  1.0000
  H   H40       1.0  0.50435  0.61607  0.75312  1.0000
  H   H41       1.0  0.38410  0.88827  0.75336  1.0000
  H   H42       1.0  0.11175  0.49592  0.75358  1.0000
  H   H43       1.0  0.52585  0.28544  0.63311  1.0000
  H   H44       1.0  0.71485  0.24070  0.63456  1.0000
  H   H45       1.0  0.75897  0.47359  0.63710  1.0000
  H   H46       1.0  0.47391  0.71459  0.63253  1.0000
  H   H47       1.0  0.28541  0.75929  0.63589  1.0000
  H   H48       1.0  0.24078  0.52606  0.63506  1.0000
  H   H49       1.0  0.24105  0.43798  0.65567  1.0000
  H   H50       1.0  0.56168  0.80317  0.65460  1.0000
  H   H51       1.0  0.19684  0.75858  0.65421  1.0000
  H   H52       1.0  0.75879  0.56173  0.65358  1.0000
  H   H53       1.0  0.43824  0.19680  0.65697  1.0000
  H   H54       1.0  0.80331  0.24129  0.65576  1.0000
  H   H55       1.0  0.84257  0.59056  0.76357  1.0000
  H   H56       1.0  0.40904  0.25196  0.76269  1.0000
  H   H57       1.0  0.74817  0.15716  0.76282  1.0000
  H   H58       1.0  0.15725  0.40962  0.76714  1.0000
  H   H59       1.0  0.59097  0.74825  0.76064  1.0000
  H   H60       1.0  0.25175  0.84275  0.76075  1.0000
  H   H61       1.0  0.68875  0.47699  0.74525  1.0000
  H   H62       1.0  0.52380  0.21241  0.74103  1.0000
  H   H63       1.0  0.78769  0.31083  0.74756  1.0000
  H   H64       1.0  0.31091  0.52317  0.74782  1.0000
  H   H65       1.0  0.47665  0.78797  0.74029  1.0000
  H   H66       1.0  0.21180  0.68882  0.74375  1.0000
  H   H67       1.0  0.37216  0.47209  0.76649  1.0000
  H   H68       1.0  0.52780  0.90003  0.76663  1.0000
  H   H69       1.0  0.09990  0.62798  0.76600  1.0000
  H   H70       1.0  0.62790  0.52806  0.76597  1.0000
  H   H71       1.0  0.47214  0.10000  0.76682  1.0000
  H   H72       1.0  0.90021  0.37224  0.76544  1.0000
  C   C1        1.0  0.36733  0.47734  0.16766  1.0000
  C   C2        1.0  0.52259  0.88997  0.16779  1.0000
  C   C3        1.0  0.10989  0.63256  0.16822  1.0000
  C   C4        1.0  0.63260  0.52260  0.16774  1.0000
  C   C5        1.0  0.47730  0.10997  0.16818  1.0000
  C   C6        1.0  0.88998  0.36720  0.16655  1.0000
  C   C7        1.0  0.26669  0.48234  0.14667  1.0000
  C   C8        1.0  0.51754  0.78430  0.14718  1.0000
  C   C9        1.0  0.21553  0.73319  0.14724  1.0000
  C   C10       1.0  0.73330  0.51767  0.14801  1.0000
  C   C11       1.0  0.48232  0.21561  0.14629  1.0000
  C   C12       1.0  0.78429  0.26656  0.14494  1.0000
  C   C13       1.0  0.48898  0.37289  0.15810  1.0000
  C   C14       1.0  0.62709  0.11594  0.15816  1.0000
  C   C15       1.0  0.88390  0.51097  0.15856  1.0000
  C   C16       1.0  0.51091  0.62706  0.15789  1.0000
  C   C17       1.0  0.37278  0.88386  0.15794  1.0000
  C   C18       1.0  0.11603  0.48894  0.15804  1.0000
  C   C19       1.0  0.50636  0.26585  0.13993  1.0000
  C   C20       1.0  0.73403  0.24045  0.13961  1.0000
  C   C21       1.0  0.75948  0.49363  0.14000  1.0000
  C   C22       1.0  0.49358  0.73407  0.14054  1.0000
  C   C23       1.0  0.26574  0.75954  0.13902  1.0000
  C   C24       1.0  0.24049  0.50636  0.13924  1.0000
  C   C25       1.0  0.45676  0.24077  0.15752  1.0000
  C   C26       1.0  0.75907  0.21587  0.15566  1.0000
  C   C27       1.0  0.78397  0.54313  0.16341  1.0000
  C   C28       1.0  0.54314  0.75922  0.16045  1.0000
  C   C29       1.0  0.24056  0.78390  0.16156  1.0000
  C   C30       1.0  0.21600  0.45683  0.16005  1.0000
  C   C31       1.0  0.24140  0.45757  0.15486  1.0000
  C   C32       1.0  0.54237  0.78386  0.15512  1.0000
  C   C33       1.0  0.21596  0.75842  0.15646  1.0000
  C   C34       1.0  0.75858  0.54242  0.15783  1.0000
  C   C35       1.0  0.45750  0.21610  0.15297  1.0000
  C   C36       1.0  0.78376  0.24123  0.15071  1.0000
  C   C37       1.0  0.42874  0.23751  0.17392  1.0000
  C   C38       1.0  0.76224  0.19106  0.17108  1.0000
  C   C39       1.0  0.80847  0.57106  0.18563  1.0000
  C   C40       1.0  0.57111  0.76256  0.17974  1.0000
  C   C41       1.0  0.23694  0.80830  0.18324  1.0000
  C   C42       1.0  0.19147  0.42887  0.18027  1.0000
  C   C43       1.0  0.29077  0.53592  0.13437  1.0000
  C   C44       1.0  0.46394  0.75468  0.13476  1.0000
  C   C45       1.0  0.24516  0.70925  0.13423  1.0000
  C   C46       1.0  0.70920  0.46411  0.13459  1.0000
  C   C47       1.0  0.53592  0.24516  0.13488  1.0000
  C   C48       1.0  0.75488  0.29073  0.13443  1.0000
  C   C49       1.0  0.48784  0.48753  0.10109  1.0000
  C   C50       1.0  0.51235  0.00024  0.10143  1.0000
  C   C51       1.0  0.99961  0.51203  0.10178  1.0000
  C   C52       1.0  0.51212  0.51244  0.10108  1.0000
  C   C53       1.0  0.48745  0.99964  0.10147  1.0000
  C   C54       1.0  0.00024  0.48775  0.10152  1.0000
  C   C55       1.0  0.48167  0.26641  0.15087  1.0000
  C   C56       1.0  0.73345  0.21518  0.14964  1.0000
  C   C57       1.0  0.78472  0.51827  0.15314  1.0000
  C   C58       1.0  0.51828  0.73356  0.15241  1.0000
  C   C59       1.0  0.26623  0.78475  0.15160  1.0000
  C   C60       1.0  0.21523  0.48170  0.15113  1.0000
  C   C61       1.0  0.50727  0.24126  0.13976  1.0000
  C   C62       1.0  0.75867  0.26591  0.13897  1.0000
  C   C63       1.0  0.73399  0.49274  0.13983  1.0000
  C   C64       1.0  0.49263  0.75864  0.14017  1.0000
  C   C65       1.0  0.24120  0.73398  0.13911  1.0000
  C   C66       1.0  0.26599  0.50727  0.13917  1.0000
  C   C67       1.0  0.36730  0.47732  0.66800  1.0000
  C   C68       1.0  0.52261  0.88998  0.66794  1.0000
  C   C69       1.0  0.11002  0.63272  0.66755  1.0000
  C   C70       1.0  0.63272  0.52275  0.66751  1.0000
  C   C71       1.0  0.47739  0.11007  0.66828  1.0000
  C   C72       1.0  0.89008  0.36740  0.66701  1.0000
  C   C73       1.0  0.26663  0.48233  0.64781  1.0000
  C   C74       1.0  0.51732  0.78419  0.64571  1.0000
  C   C75       1.0  0.21581  0.73317  0.64736  1.0000
  C   C76       1.0  0.73319  0.51736  0.64800  1.0000
  C   C77       1.0  0.48263  0.21584  0.64753  1.0000
  C   C78       1.0  0.78443  0.26679  0.64739  1.0000
  C   C79       1.0  0.48892  0.37293  0.65775  1.0000
  C   C80       1.0  0.62723  0.11610  0.65821  1.0000
  C   C81       1.0  0.88392  0.51095  0.65855  1.0000
  C   C82       1.0  0.51129  0.62725  0.65769  1.0000
  C   C83       1.0  0.37293  0.88397  0.65787  1.0000
  C   C84       1.0  0.11603  0.48899  0.65814  1.0000
  C   C85       1.0  0.50643  0.26605  0.64126  1.0000
  C   C86       1.0  0.73418  0.24054  0.64231  1.0000
  C   C87       1.0  0.75925  0.49315  0.64414  1.0000
  C   C88       1.0  0.49339  0.73396  0.64039  1.0000
  C   C89       1.0  0.26605  0.75943  0.64291  1.0000
  C   C90       1.0  0.24056  0.50653  0.64271  1.0000
  C   C91       1.0  0.45684  0.24077  0.65908  1.0000
  C   C92       1.0  0.75935  0.21610  0.65876  1.0000
  C   C93       1.0  0.78388  0.54277  0.65783  1.0000
  C   C94       1.0  0.54301  0.75918  0.65729  1.0000
  C   C95       1.0  0.24088  0.78389  0.65725  1.0000
  C   C96       1.0  0.21594  0.45693  0.65881  1.0000
  C   C97       1.0  0.24129  0.45756  0.65359  1.0000
  C   C98       1.0  0.54216  0.78378  0.65220  1.0000
  C   C99       1.0  0.21624  0.75845  0.65258  1.0000
  C   C100      1.0  0.75854  0.54215  0.65284  1.0000
  C   C101      1.0  0.45776  0.21620  0.65431  1.0000
  C   C102      1.0  0.78397  0.24152  0.65374  1.0000
  C   C103      1.0  0.42873  0.23714  0.67715  1.0000
  C   C104      1.0  0.76291  0.19155  0.67554  1.0000
  C   C105      1.0  0.80872  0.57069  0.67314  1.0000
  C   C106      1.0  0.57111  0.76271  0.67423  1.0000
  C   C107      1.0  0.23748  0.80854  0.67316  1.0000
  C   C108      1.0  0.19119  0.42901  0.67648  1.0000
  C   C109      1.0  0.29083  0.53592  0.64026  1.0000
  C   C110      1.0  0.46367  0.75451  0.63727  1.0000
  C   C111      1.0  0.24551  0.70918  0.64259  1.0000
  C   C112      1.0  0.70903  0.46366  0.64321  1.0000
  C   C113      1.0  0.53633  0.24573  0.63771  1.0000
  C   C114      1.0  0.75487  0.29079  0.63995  1.0000
  C   C115      1.0  0.48787  0.48759  0.60086  1.0000
  C   C116      1.0  0.51250  0.00035  0.60121  1.0000
  C   C117      1.0  0.99969  0.51219  0.60152  1.0000
  C   C118      1.0  0.51216  0.51249  0.60088  1.0000
  C   C119      1.0  0.48760  0.99974  0.60134  1.0000
  C   C120      1.0  0.00032  0.48792  0.60134  1.0000
  C   C121      1.0  0.48166  0.26648  0.65182  1.0000
  C   C122      1.0  0.73367  0.21530  0.65222  1.0000
  C   C123      1.0  0.78455  0.51784  0.65292  1.0000
  C   C124      1.0  0.51815  0.73350  0.65071  1.0000
  C   C125      1.0  0.26655  0.78468  0.65188  1.0000
  C   C126      1.0  0.21527  0.48186  0.65240  1.0000
  C   C127      1.0  0.50753  0.24156  0.64137  1.0000
  C   C128      1.0  0.75877  0.26604  0.64232  1.0000
  C   C129      1.0  0.73380  0.49234  0.64415  1.0000
  C   C130      1.0  0.49239  0.75851  0.64004  1.0000
  C   C131      1.0  0.24149  0.73390  0.64304  1.0000
  C   C132      1.0  0.26600  0.50731  0.64288  1.0000
  N   N1        1.0  0.48372  0.38350  0.05558  1.0000
  N   N2        1.0  0.61644  0.10003  0.05564  1.0000
  N   N3        1.0  0.89981  0.51630  0.05602  1.0000
  N   N4        1.0  0.51625  0.61646  0.05541  1.0000
  N   N5        1.0  0.38337  0.89979  0.05555  1.0000
  N   N6        1.0  0.10011  0.48362  0.05557  1.0000
  N   N7        1.0  0.38298  0.48166  0.06501  1.0000
  N   N8        1.0  0.51824  0.90124  0.06516  1.0000
  N   N9        1.0  0.09852  0.61695  0.06550  1.0000
  N   N10       1.0  0.61700  0.51831  0.06500  1.0000
  N   N11       1.0  0.48168  0.09867  0.06555  1.0000
  N   N12       1.0  0.90127  0.38286  0.06399  1.0000
  N   N13       1.0  0.48366  0.38352  0.55517  1.0000
  N   N14       1.0  0.61663  0.10015  0.55576  1.0000
  N   N15       1.0  0.89984  0.51637  0.55599  1.0000
  N   N16       1.0  0.51658  0.61663  0.55511  1.0000
  N   N17       1.0  0.38353  0.89984  0.55532  1.0000
  N   N18       1.0  0.10015  0.48368  0.55551  1.0000
  N   N19       1.0  0.38299  0.48178  0.56544  1.0000
  N   N20       1.0  0.51824  0.90127  0.56542  1.0000
  N   N21       1.0  0.09878  0.61695  0.56517  1.0000
  N   N22       1.0  0.61699  0.51822  0.56502  1.0000
  N   N23       1.0  0.48181  0.09879  0.56573  1.0000
  N   N24       1.0  0.90127  0.38310  0.56451  1.0000
  O   O1        1.0  0.81024  0.59256  0.14617  1.0000
  O   O2        1.0  0.40762  0.21857  0.12628  1.0000
  O   O3        1.0  0.78067  0.18853  0.11960  1.0000
  O   O4        1.0  0.18981  0.40746  0.13966  1.0000
  O   O5        1.0  0.59241  0.78142  0.13314  1.0000
  O   O6        1.0  0.21680  0.80963  0.14629  1.0000
  O   O7        1.0  0.82867  0.57065  0.26114  1.0000
  O   O8        1.0  0.42850  0.25722  0.25426  1.0000
  O   O9        1.0  0.74302  0.17150  0.25442  1.0000
  O   O10       1.0  0.17109  0.42910  0.25507  1.0000
  O   O11       1.0  0.57102  0.74291  0.26151  1.0000
  O   O12       1.0  0.25789  0.82905  0.25499  1.0000
  O   O13       1.0  0.68644  0.45922  0.20707  1.0000
  O   O14       1.0  0.54084  0.22731  0.20707  1.0000
  O   O15       1.0  0.77269  0.31345  0.20714  1.0000
  O   O16       1.0  0.31348  0.54084  0.20713  1.0000
  O   O17       1.0  0.45885  0.77242  0.20710  1.0000
  O   O18       1.0  0.22740  0.68652  0.20694  1.0000
  O   O19       1.0  0.70940  0.44543  0.07342  1.0000
  O   O20       1.0  0.55455  0.26398  0.07330  1.0000
  O   O21       1.0  0.73600  0.29054  0.07337  1.0000
  O   O22       1.0  0.29058  0.55459  0.07323  1.0000
  O   O23       1.0  0.44536  0.73582  0.07308  1.0000
  O   O24       1.0  0.26407  0.70948  0.07324  1.0000
  O   O25       1.0  0.81164  0.59151  0.61854  1.0000
  O   O26       1.0  0.40756  0.21761  0.63335  1.0000
  O   O27       1.0  0.78212  0.18970  0.62878  1.0000
  O   O28       1.0  0.18853  0.40788  0.62654  1.0000
  O   O29       1.0  0.59215  0.78177  0.62658  1.0000
  O   O30       1.0  0.21866  0.81070  0.62386  1.0000
  O   O31       1.0  0.82777  0.57124  0.76086  1.0000
  O   O32       1.0  0.42851  0.25724  0.75443  1.0000
  O   O33       1.0  0.74309  0.17149  0.75477  1.0000
  O   O34       1.0  0.17190  0.42895  0.76108  1.0000
  O   O35       1.0  0.57151  0.74312  0.75453  1.0000
  O   O36       1.0  0.25682  0.82837  0.75531  1.0000
  O   O37       1.0  0.68625  0.45933  0.71355  1.0000
  O   O38       1.0  0.54120  0.22756  0.70709  1.0000
  O   O39       1.0  0.77274  0.31338  0.71339  1.0000
  O   O40       1.0  0.31344  0.54063  0.71333  1.0000
  O   O41       1.0  0.45911  0.77287  0.70716  1.0000
  O   O42       1.0  0.22712  0.68645  0.71341  1.0000
  O   O43       1.0  0.70928  0.44453  0.58680  1.0000
  O   O44       1.0  0.55515  0.26506  0.57964  1.0000
  O   O45       1.0  0.73594  0.29066  0.57979  1.0000
  O   O46       1.0  0.29073  0.55473  0.58008  1.0000
  O   O47       1.0  0.44469  0.73516  0.57996  1.0000
  O   O48       1.0  0.26493  0.70943  0.58663  1.0000
  C   C133      1.0  0.43431  0.50179  0.19786  1.0000
  C   C134      1.0  0.41292  0.48732  0.10648  1.0000
  C  Sn1       1.0  0.41495  0.47014  0.01117  1.0000
  C  Sn2       1.0  0.43887  0.46744  0.00754  1.0000
  C   C135      1.0  0.46015  0.48200  0.09945  1.0000
  C   C136      1.0  0.45790  0.49914  0.19438  1.0000
  H   H73       1.0  0.43257  0.51504  0.27136  1.0000
  O  Te1       1.0  0.39340  0.45605  0.92058  1.0000
  O  Te2       1.0  0.44144  0.45063  0.91335  1.0000
  H   H74       1.0  0.47446  0.51033  0.26517  1.0000
  Mg  Mg1       1.0  0.40653  0.43537  0.81099  1.0000
  C   C137      1.0  0.53539  0.96888  0.99288  1.0000
  C   C138      1.0  0.51896  0.97463  0.07605  1.0000
  C  Sn3       1.0  0.50159  0.95533  0.17039  1.0000
  C  Sn4       1.0  0.50070  0.92960  0.18147  1.0000
  C   C139      1.0  0.51723  0.92383  0.09786  1.0000
  C   C140      1.0  0.53453  0.94329  0.00377  1.0000
  H   H75       1.0  0.54879  0.98393  0.92013  1.0000
  O  Te3       1.0  0.48530  0.96162  0.25266  1.0000
  O  Te4       1.0  0.48353  0.90994  0.27493  1.0000
  H   H76       1.0  0.54727  0.93889  0.93945  1.0000
  Mg  Mg2       1.0  0.46522  0.92812  0.36454  1.0000
  C   C141      1.0  0.05493  0.55115  0.19748  1.0000
  C   C142      1.0  0.03016  0.54116  0.12711  1.0000
  C  Sn5       1.0  0.02768  0.55704  0.02622  1.0000
  C  Sn6       1.0  0.05048  0.58361  0.99540  1.0000
  C   C143      1.0  0.07518  0.59320  0.06631  1.0000
  C   C144      1.0  0.07743  0.57714  0.16711  1.0000
  H   H77       1.0  0.05668  0.53872  0.27541  1.0000
  O  Te5       1.0  0.00278  0.54696  0.95694  1.0000
  O  Te6       1.0  0.04857  0.59991  0.89501  1.0000
  H   H78       1.0  0.09662  0.58487  0.22151  1.0000
  Mg  Mg3       1.0  0.01030  0.57688  0.82870  1.0000
  C   C145      1.0  0.56676  0.53570  0.99278  1.0000
  C   C146      1.0  0.54434  0.51906  0.07579  1.0000
  C  Sn7       1.0  0.54624  0.50166  0.16999  1.0000
  C  Sn8       1.0  0.57107  0.50074  0.18109  1.0000
  C   C147      1.0  0.59338  0.51727  0.09764  1.0000
  C   C148      1.0  0.59125  0.53460  0.00369  1.0000
  H   H79       1.0  0.56511  0.54912  0.92014  1.0000
  O  Te7       1.0  0.52365  0.48538  0.25210  1.0000
  O  Te8       1.0  0.57354  0.48355  0.27441  1.0000
  H   H80       1.0  0.60862  0.54754  0.93950  1.0000
  Mg  Mg4       1.0  0.53706  0.46526  0.36383  1.0000
  C   C149      1.0  0.46508  0.04491  0.98136  1.0000
  C   C150      1.0  0.47790  0.06848  0.06041  1.0000
  C  Sn9       1.0  0.49593  0.07074  0.16263  1.0000
  C  Sn10      1.0  0.50119  0.04876  0.18588  1.0000
  C   C151      1.0  0.48827  0.02506  0.10619  1.0000
  C   C152      1.0  0.47025  0.02300  0.00420  1.0000
  H   H81       1.0  0.45115  0.04332  0.90240  1.0000
  O  Te9       1.0  0.50857  0.09465  0.24069  1.0000
  O  Te10      1.0  0.51913  0.05049  0.28735  1.0000
  H   H82       1.0  0.46034  0.00481  0.94296  1.0000
  Mg  Mg5       1.0  0.53137  0.08726  0.36699  1.0000
  C   C153      1.0  0.96869  0.43344  0.99199  1.0000
  C   C154      1.0  0.97465  0.45555  0.07572  1.0000
  C  Sn11      1.0  0.95534  0.45354  0.17031  1.0000
  C  Sn12      1.0  0.92960  0.42870  0.18106  1.0000
  C   C155      1.0  0.92384  0.40647  0.09690  1.0000
  C   C156      1.0  0.94331  0.40870  0.00257  1.0000
  H   H83       1.0  0.98376  0.43516  0.91905  1.0000
  O  Te11      1.0  0.96164  0.47605  0.25314  1.0000
  O  Te12      1.0  0.90993  0.42613  0.27476  1.0000
  H   H84       1.0  0.93869  0.39163  0.93781  1.0000
  Mg  Mg6       1.0  0.92811  0.46253  0.36515  1.0000
  C   C157      1.0  0.46683  0.43127  0.18761  1.0000
  C   C158      1.0  0.48287  0.45554  0.11530  1.0000
  C  Sn13      1.0  0.49976  0.45599  0.01123  1.0000
  C  Sn14      1.0  0.50056  0.43189  0.97915  1.0000
  C   C159      1.0  0.48442  0.40750  0.05202  1.0000
  C   C160      1.0  0.46759  0.40727  0.15600  1.0000
  H   H85       1.0  0.45380  0.43109  0.26801  1.0000
  O  Te13      1.0  0.51567  0.48063  0.94004  1.0000
  O  Te14      1.0  0.51726  0.43177  0.87559  1.0000
  H   H86       1.0  0.45516  0.38848  0.21191  1.0000
  Mg  Mg7       1.0  0.53516  0.47013  0.80763  1.0000
  C   C161      1.0  0.58204  0.04926  0.18727  1.0000
  C   C162      1.0  0.59084  0.07054  0.09362  1.0000
  C  Sn15      1.0  0.57256  0.07018  0.99685  1.0000
  C  Sn16      1.0  0.54496  0.04786  0.99407  1.0000
  C   C163      1.0  0.53635  0.02646  0.08826  1.0000
  C   C164      1.0  0.55482  0.02724  0.18463  1.0000
  H   H87       1.0  0.59633  0.04987  0.26189  1.0000
  O  Te15      1.0  0.58169  0.09161  0.90400  1.0000
  O  Te16      1.0  0.52625  0.04676  0.89847  1.0000
  H   H88       1.0  0.54800  0.01077  0.25718  1.0000
  Mg  Mg8       1.0  0.54848  0.08084  0.79315  1.0000
  C   C165      1.0  0.95056  0.53267  0.18782  1.0000
  C   C166      1.0  0.92930  0.52020  0.09391  1.0000
  C  Sn17      1.0  0.92991  0.50273  0.99694  1.0000
  C  Sn18      1.0  0.95223  0.49745  0.99423  1.0000
  C   C167      1.0  0.97339  0.50979  0.08868  1.0000
  C   C168      1.0  0.97258  0.52746  0.18525  1.0000
  H   H89       1.0  0.94994  0.54633  0.26259  1.0000
  O  Te17      1.0  0.90850  0.49046  0.90383  1.0000
  O  Te18      1.0  0.95334  0.47985  0.89844  1.0000
  H   H90       1.0  0.98904  0.53710  0.25800  1.0000
  Mg  Mg9       1.0  0.91929  0.46803  0.79279  1.0000
  C   C169      1.0  0.49660  0.56235  0.96666  1.0000
  C   C170      1.0  0.51064  0.58562  0.04693  1.0000
  C  Sn19      1.0  0.52746  0.58610  0.15132  1.0000
  C  Sn20      1.0  0.53024  0.56260  0.17553  1.0000
  C   C171      1.0  0.51611  0.53921  0.09460  1.0000
  C   C172      1.0  0.49934  0.53917  0.99043  1.0000
  H   H91       1.0  0.48363  0.56216  0.88602  1.0000
  O  Te19      1.0  0.54134  0.60972  0.23060  1.0000
  O  Te20      1.0  0.54692  0.56252  0.27916  1.0000
  H   H92       1.0  0.48848  0.52099  0.92824  1.0000
  Mg  Mg10      1.0  0.56165  0.59963  0.35978  1.0000
  C   C173      1.0  0.45161  0.94659  0.97797  1.0000
  C   C174      1.0  0.45955  0.96890  0.06336  1.0000
  C  Sn21      1.0  0.44119  0.96843  0.15955  1.0000
  C  Sn22      1.0  0.41440  0.94493  0.17023  1.0000
  C   C175      1.0  0.40665  0.92249  0.08439  1.0000
  C   C176      1.0  0.42519  0.92340  0.98847  1.0000
  H   H93       1.0  0.46594  0.94712  0.90379  1.0000
  O  Te21      1.0  0.44947  0.99113  0.24403  1.0000
  O  Te22      1.0  0.39565  0.94391  0.26550  1.0000
  H   H94       1.0  0.41903  0.90594  0.92243  1.0000
  Mg  Mg11      1.0  0.41655  0.97995  0.35782  1.0000
  C   C177      1.0  0.05325  0.50494  0.97788  1.0000
  C   C178      1.0  0.03074  0.49016  0.06335  1.0000
  C  Sn23      1.0  0.03127  0.47236  0.15962  1.0000
  C  Sn24      1.0  0.05480  0.46911  0.17031  1.0000
  C   C179      1.0  0.07721  0.48378  0.08440  1.0000
  C   C180      1.0  0.07647  0.50175  0.98839  1.0000
  H   H95       1.0  0.05268  0.51869  0.90365  1.0000
  O  Te23      1.0  0.00861  0.45796  0.24417  1.0000
  O  Te24      1.0  0.05588  0.45146  0.26566  1.0000
  H   H96       1.0  0.09390  0.51303  0.92229  1.0000
  Mg  Mg12      1.0  0.01986  0.43633  0.35806  1.0000
  C   C181      1.0  0.32107  0.49810  0.04202  1.0000
  C   C182      1.0  0.29723  0.48420  0.11990  1.0000
  C  Sn25      1.0  0.29622  0.46746  0.22582  1.0000
  C  Sn26      1.0  0.31955  0.46463  0.25408  1.0000
  C   C183      1.0  0.34332  0.47864  0.17563  1.0000
  C   C184      1.0  0.34410  0.49533  0.06985  1.0000
  H   H97       1.0  0.32169  0.51124  0.96022  1.0000
  O  Te25      1.0  0.27222  0.45371  0.30260  1.0000
  O  Te26      1.0  0.31910  0.44805  0.35937  1.0000
  H   H98       1.0  0.36258  0.50610  0.00962  1.0000
  Mg  Mg13      1.0  0.28165  0.43348  0.43537  1.0000
  C   C185      1.0  0.53796  0.83818  0.26168  1.0000
  C   C186      1.0  0.52245  0.81576  0.17697  1.0000
  C  Sn27      1.0  0.50654  0.81784  0.07491  1.0000
  C  Sn28      1.0  0.50621  0.84285  0.05755  1.0000
  C   C187      1.0  0.52181  0.86517  0.14276  1.0000
  C   C188      1.0  0.53765  0.86286  0.24460  1.0000
  H   H99       1.0  0.55023  0.83641  0.34043  1.0000
  O  Te27      1.0  0.49117  0.79545  0.99120  1.0000
  O  Te28      1.0  0.49050  0.84571  0.95632  1.0000
  H   H100      1.0  0.54967  0.88023  0.31011  1.0000
  Mg  Mg14      1.0  0.47300  0.80913  0.86773  1.0000
  C   C189      1.0  0.16250  0.66629  0.04028  1.0000
  C   C190      1.0  0.14148  0.65798  0.13519  1.0000
  C  Sn29      1.0  0.14378  0.67579  0.23876  1.0000
  C  Sn30      1.0  0.16760  0.70241  0.24718  1.0000
  C   C191      1.0  0.18851  0.71054  0.15169  1.0000
  C   C192      1.0  0.18600  0.69255  0.04849  1.0000
  H   H101      1.0  0.16056  0.65260  0.96039  1.0000
  O  Te29      1.0  0.12259  0.66715  0.33277  1.0000
  O  Te30      1.0  0.17043  0.72063  0.34963  1.0000
  H   H102      1.0  0.20227  0.69922  0.97497  1.0000
  Mg  Mg15      1.0  0.13598  0.69938  0.45387  1.0000
  C   C193      1.0  0.66646  0.50376  0.04020  1.0000
  C   C194      1.0  0.65808  0.51647  0.13492  1.0000
  C  Sn31      1.0  0.67584  0.53201  0.23852  1.0000
  C  Sn32      1.0  0.70247  0.53485  0.24718  1.0000
  C   C195      1.0  0.71067  0.52208  0.15188  1.0000
  C   C196      1.0  0.69273  0.50657  0.04864  1.0000
  H   H103      1.0  0.65259  0.49200  0.96028  1.0000
  O  Te31      1.0  0.66714  0.54456  0.33233  1.0000
  O  Te32      1.0  0.72064  0.55027  0.34967  1.0000
  H   H104      1.0  0.69923  0.49696  0.97528  1.0000
  Mg  Mg16      1.0  0.69932  0.56345  0.45358  1.0000
  C   C197      1.0  0.46258  0.14865  0.26919  1.0000
  C   C198      1.0  0.47382  0.13738  0.18170  1.0000
  C  Sn33      1.0  0.49033  0.15296  0.07482  1.0000
  C  Sn34      1.0  0.49567  0.18033  0.05546  1.0000
  C   C199      1.0  0.48435  0.19143  0.14361  1.0000
  C   C200      1.0  0.46784  0.17566  0.25020  1.0000
  H   H105      1.0  0.44982  0.13646  0.35172  1.0000
  O  Te33      1.0  0.50139  0.14159  0.98831  1.0000
  O  Te34      1.0  0.51212  0.19658  0.94948  1.0000
  H   H106      1.0  0.45916  0.18440  0.31798  1.0000
  Mg  Mg17      1.0  0.52251  0.17163  0.85851  1.0000
  C   C201      1.0  0.83816  0.29997  0.25985  1.0000
  C   C202      1.0  0.81578  0.29308  0.17508  1.0000
  C  Sn35      1.0  0.81788  0.31111  0.07327  1.0000
  C  Sn36      1.0  0.84289  0.33649  0.05623  1.0000
  C   C203      1.0  0.86518  0.34318  0.14150  1.0000
  C   C204      1.0  0.86284  0.32499  0.24308  1.0000
  H   H107      1.0  0.83637  0.28589  0.33840  1.0000
  O  Te35      1.0  0.79531  0.30414  0.98949  1.0000
  O  Te36      1.0  0.84556  0.35510  0.95525  1.0000
  H   H108      1.0  0.88019  0.33031  0.30864  1.0000
  Mg  Mg18      1.0  0.80902  0.33605  0.86645  1.0000
  C   C205      1.0  0.50277  0.33418  0.26530  1.0000
  C   C206      1.0  0.49147  0.34514  0.17654  1.0000
  C  Sn37      1.0  0.47446  0.32901  0.07207  1.0000
  C  Sn38      1.0  0.46868  0.30140  0.05646  1.0000
  C   C207      1.0  0.48006  0.29061  0.14585  1.0000
  C   C208      1.0  0.49707  0.30694  0.25001  1.0000
  H   H109      1.0  0.51591  0.34680  0.34594  1.0000
  O  Te37      1.0  0.46335  0.34051  0.98425  1.0000
  O  Te38      1.0  0.45174  0.28503  0.95295  1.0000
  H   H110      1.0  0.50580  0.29844  0.31877  1.0000
  Mg  Mg19      1.0  0.44146  0.30974  0.85888  1.0000
  C   C209      1.0  0.67909  0.18237  0.25873  1.0000
  C   C210      1.0  0.70189  0.18910  0.17717  1.0000
  C  Sn39      1.0  0.70012  0.17113  0.07552  1.0000
  C  Sn40      1.0  0.67502  0.14598  0.05537  1.0000
  C   C211      1.0  0.65232  0.13945  0.13744  1.0000
  C   C212      1.0  0.65432  0.15757  0.23889  1.0000
  H   H111      1.0  0.68063  0.19640  0.33718  1.0000
  O  Te39      1.0  0.72311  0.17838  0.99498  1.0000
  O  Te40      1.0  0.67268  0.12786  0.95448  1.0000
  H   H112      1.0  0.63665  0.15237  0.30196  1.0000
  Mg  Mg20      1.0  0.70973  0.14664  0.87071  1.0000
  C   C213      1.0  0.81755  0.49657  0.26038  1.0000
  C   C214      1.0  0.81078  0.51267  0.17945  1.0000
  C  Sn41      1.0  0.82867  0.52888  0.07775  1.0000
  C  Sn42      1.0  0.85380  0.52891  0.05691  1.0000
  C   C215      1.0  0.86037  0.51271  0.13835  1.0000
  C   C216      1.0  0.84232  0.49658  0.23985  1.0000
  H   H113      1.0  0.80357  0.48408  0.33887  1.0000
  O  Te41      1.0  0.82160  0.54507  0.99784  1.0000
  O  Te42      1.0  0.87206  0.54512  0.95595  1.0000
  H   H114      1.0  0.84756  0.48410  0.30244  1.0000
  Mg  Mg21      1.0  0.85324  0.56343  0.87321  1.0000
  C   C217      1.0  0.49695  0.66568  0.26521  1.0000
  C   C218      1.0  0.50838  0.65479  0.17650  1.0000
  C  Sn43      1.0  0.52558  0.67104  0.07292  1.0000
  C  Sn44      1.0  0.53143  0.69868  0.05815  1.0000
  C   C219      1.0  0.51991  0.70939  0.14747  1.0000
  C   C220      1.0  0.50271  0.69295  0.25074  1.0000
  H   H115      1.0  0.48366  0.65297  0.34515  1.0000
  O  Te43      1.0  0.53682  0.66005  0.98515  1.0000
  O  Te44      1.0  0.54857  0.71560  0.95554  1.0000
  H   H116      1.0  0.49389  0.70139  0.31945  1.0000
  Mg  Mg22      1.0  0.55896  0.69097  0.86116  1.0000
  C   C221      1.0  0.30442  0.83868  0.04420  1.0000
  C   C222      1.0  0.29464  0.81499  0.12300  1.0000
  C  Sn45      1.0  0.31095  0.81388  0.22583  1.0000
  C  Sn46      1.0  0.33753  0.83695  0.25000  1.0000
  C   C223      1.0  0.34712  0.86056  0.17067  1.0000
  C   C224      1.0  0.33063  0.86145  0.06800  1.0000
  H   H117      1.0  0.29166  0.83959  0.96481  1.0000
  O  Te45      1.0  0.30087  0.79005  0.30358  1.0000
  O  Te46      1.0  0.35426  0.83641  0.35215  1.0000
  H   H118      1.0  0.33820  0.87980  0.00706  1.0000
  Mg  Mg23      1.0  0.33138  0.79924  0.43101  1.0000
  C   C225      1.0  0.18239  0.50335  0.25930  1.0000
  C   C226      1.0  0.18916  0.48728  0.17785  1.0000
  C  Sn47      1.0  0.17126  0.47112  0.07597  1.0000
  C  Sn48      1.0  0.14614  0.47110  0.05548  1.0000
  C   C227      1.0  0.13956  0.48726  0.13744  1.0000
  C   C228      1.0  0.15762  0.50335  0.23912  1.0000
  H   H119      1.0  0.19637  0.51582  0.33792  1.0000
  O  Te47      1.0  0.17834  0.45540  0.99554  1.0000
  O  Te48      1.0  0.12788  0.45536  0.95436  1.0000
  H   H120      1.0  0.15238  0.51580  0.30211  1.0000
  Mg  Mg24      1.0  0.14669  0.43708  0.87087  1.0000
  C   C229      1.0  0.43439  0.50193  0.69786  1.0000
  C   C230      1.0  0.41295  0.48742  0.60674  1.0000
  C  Sn49      1.0  0.41494  0.47020  0.51151  1.0000
  C  Sn50      1.0  0.43885  0.46750  0.50769  1.0000
  C   C231      1.0  0.46018  0.48209  0.59935  1.0000
  C   C232      1.0  0.45798  0.49927  0.69421  1.0000
  H   H121      1.0  0.43268  0.51521  0.77130  1.0000
  O  Te49      1.0  0.39334  0.45586  0.42118  1.0000
  O  Te50      1.0  0.44137  0.45042  0.41359  1.0000
  H   H122      1.0  0.47457  0.51049  0.76480  1.0000
  Mg  Mg25      1.0  0.40642  0.43513  0.31160  1.0000
  C   C233      1.0  0.49643  0.94517  0.69816  1.0000
  C   C234      1.0  0.51108  0.96981  0.62672  1.0000
  C  Sn51      1.0  0.52920  0.97207  0.52488  1.0000
  C  Sn52      1.0  0.53267  0.94920  0.49419  1.0000
  C   C235      1.0  0.51790  0.92464  0.56618  1.0000
  C   C236      1.0  0.49982  0.92261  0.66792  1.0000
  H   H123      1.0  0.48243  0.94359  0.77683  1.0000
  O  Te51      1.0  0.54369  0.99684  0.45453  1.0000
  O  Te52      1.0  0.55064  0.95090  0.39286  1.0000
  H   H124      1.0  0.48846  0.90352  0.72315  1.0000
  Mg  Mg26      1.0  0.56578  0.98905  0.32528  1.0000
  C   C237      1.0  0.06744  0.56576  0.69878  1.0000
  C   C238      1.0  0.07443  0.58708  0.60710  1.0000
  C  Sn53      1.0  0.05528  0.58499  0.51141  1.0000
  C  Sn54      1.0  0.02866  0.56109  0.50772  1.0000
  C   C239      1.0  0.02187  0.53987  0.59995  1.0000
  C   C240      1.0  0.04119  0.54217  0.69525  1.0000
  H   H125      1.0  0.08238  0.56754  0.77257  1.0000
  O  Te53      1.0  0.06260  0.60649  0.42052  1.0000
  O  Te54      1.0  0.00912  0.55847  0.41318  1.0000
  H   H126      1.0  0.03577  0.52566  0.76628  1.0000
  Mg  Mg27      1.0  0.02886  0.59330  0.31049  1.0000
  C   C241      1.0  0.57984  0.53478  0.48057  1.0000
  C   C242      1.0  0.59081  0.52203  0.55986  1.0000
  C  Sn55      1.0  0.57505  0.50409  0.66234  1.0000
  C  Sn56      1.0  0.54780  0.49884  0.68560  1.0000
  C   C243      1.0  0.53701  0.51168  0.60567  1.0000
  C   C244      1.0  0.55297  0.52961  0.50342  1.0000
  H   H127      1.0  0.59218  0.54864  0.40141  1.0000
  O  Te55      1.0  0.58633  0.49153  0.74065  1.0000
  O  Te56      1.0  0.53159  0.48099  0.78732  1.0000
  H   H128      1.0  0.54446  0.53947  0.44199  1.0000
  Mg  Mg28      1.0  0.55614  0.46883  0.86724  1.0000
  C   C245      1.0  0.50372  0.05499  0.69810  1.0000
  C   C246      1.0  0.48902  0.03029  0.62693  1.0000
  C  Sn57      1.0  0.47081  0.02794  0.52541  1.0000
  C  Sn58      1.0  0.46731  0.05078  0.49478  1.0000
  C   C247      1.0  0.48213  0.07540  0.56651  1.0000
  C   C248      1.0  0.50028  0.07753  0.66792  1.0000
  H   H129      1.0  0.51778  0.05665  0.77652  1.0000
  O  Te57      1.0  0.45628  0.00311  0.45532  1.0000
  O  Te58      1.0  0.44926  0.04899  0.39378  1.0000
  H   H130      1.0  0.51168  0.09666  0.72295  1.0000
  Mg  Mg29      1.0  0.43408  0.01079  0.32647  1.0000
  C   C249      1.0  0.96870  0.43337  0.49210  1.0000
  C   C250      1.0  0.97471  0.45572  0.57576  1.0000
  C  Sn59      1.0  0.95544  0.45375  0.67051  1.0000
  C  Sn60      1.0  0.92969  0.42892  0.68148  1.0000
  C   C251      1.0  0.92388  0.40667  0.59739  1.0000
  C   C252      1.0  0.94331  0.40887  0.50290  1.0000
  H   H131      1.0  0.98373  0.43506  0.41904  1.0000
  O  Te59      1.0  0.96178  0.47628  0.75327  1.0000
  O  Te60      1.0  0.91006  0.42639  0.77534  1.0000
  H   H132      1.0  0.93865  0.39155  0.43820  1.0000
  Mg  Mg30      1.0  0.92830  0.46281  0.86555  1.0000
  C   C253      1.0  0.46712  0.41789  0.68627  1.0000
  C   C254      1.0  0.47975  0.40914  0.59299  1.0000
  C  Sn61      1.0  0.49758  0.42746  0.49670  1.0000
  C  Sn62      1.0  0.50283  0.45505  0.49404  1.0000
  C   C255      1.0  0.49011  0.46361  0.58786  1.0000
  C   C256      1.0  0.47229  0.44510  0.68375  1.0000
  H   H133      1.0  0.45334  0.40357  0.76051  1.0000
  O  Te61      1.0  0.51002  0.41838  0.40421  1.0000
  O  Te62      1.0  0.52058  0.47380  0.39892  1.0000
  H   H134      1.0  0.46253  0.45188  0.75602  1.0000
  Mg  Mg31      1.0  0.53260  0.45163  0.29397  1.0000
  C   C257      1.0  0.58225  0.04929  0.68678  1.0000
  C   C258      1.0  0.59103  0.07064  0.59354  1.0000
  C  Sn63      1.0  0.57272  0.07013  0.49707  1.0000
  C  Sn64      1.0  0.54512  0.04781  0.49419  1.0000
  C   C259      1.0  0.53653  0.02656  0.58797  1.0000
  C   C260      1.0  0.55502  0.02727  0.68404  1.0000
  H   H135      1.0  0.59655  0.04984  0.76116  1.0000
  O  Te63      1.0  0.58184  0.09162  0.40462  1.0000
  O  Te64      1.0  0.52639  0.04679  0.39889  1.0000
  H   H136      1.0  0.54821  0.01074  0.75628  1.0000
  Mg  Mg32      1.0  0.54861  0.08094  0.29408  1.0000
  C   C261      1.0  0.93426  0.49668  0.46698  1.0000
  C   C262      1.0  0.92484  0.51074  0.54727  1.0000
  C  Sn65      1.0  0.94120  0.52757  0.65168  1.0000
  C  Sn66      1.0  0.96748  0.53034  0.67589  1.0000
  C   C263      1.0  0.97672  0.51620  0.59493  1.0000
  C   C264      1.0  0.96017  0.49941  0.49075  1.0000
  H   H137      1.0  0.92146  0.48370  0.38632  1.0000
  O  Te65      1.0  0.93147  0.54147  0.73096  1.0000
  O  Te66      1.0  0.98426  0.54703  0.77953  1.0000
  H   H138      1.0  0.96748  0.48853  0.42855  1.0000
  Mg  Mg33      1.0  0.96191  0.56178  0.86017  1.0000
  C   C265      1.0  0.53345  0.56885  0.68655  1.0000
  C   C266      1.0  0.51722  0.54451  0.61489  1.0000
  C  Sn67      1.0  0.50020  0.54399  0.51145  1.0000
  C  Sn68      1.0  0.49945  0.56833  0.47935  1.0000
  C   C267      1.0  0.51579  0.59258  0.55157  1.0000
  C   C268      1.0  0.53274  0.59287  0.65492  1.0000
  H   H139      1.0  0.54659  0.56908  0.76647  1.0000
  O  Te67      1.0  0.48410  0.51950  0.44090  1.0000
  O  Te68      1.0  0.48263  0.56839  0.37640  1.0000
  H   H140      1.0  0.54532  0.61172  0.71033  1.0000
  Mg  Mg34      1.0  0.46449  0.52993  0.30919  1.0000
  C   C269      1.0  0.41789  0.95069  0.68701  1.0000
  C   C270      1.0  0.40912  0.92937  0.59335  1.0000
  C  Sn69      1.0  0.42743  0.92994  0.49661  1.0000
  C  Sn70      1.0  0.45502  0.95230  0.49386  1.0000
  C   C271      1.0  0.46359  0.97351  0.58807  1.0000
  C   C272      1.0  0.44510  0.97274  0.68441  1.0000
  H   H141      1.0  0.40359  0.95008  0.76160  1.0000
  O  Te69      1.0  0.41833  0.90848  0.40375  1.0000
  O  Te70      1.0  0.47375  0.95338  0.39830  1.0000
  H   H142      1.0  0.45189  0.98924  0.75697  1.0000
  Mg  Mg35      1.0  0.45156  0.91925  0.29295  1.0000
  C   C273      1.0  0.06582  0.50347  0.46720  1.0000
  C   C274      1.0  0.07517  0.48933  0.54709  1.0000
  C  Sn71      1.0  0.05873  0.47243  0.65105  1.0000
  C  Sn72      1.0  0.03246  0.46968  0.67522  1.0000
  C   C275      1.0  0.02329  0.48390  0.59467  1.0000
  C   C276      1.0  0.03990  0.50076  0.49093  1.0000
  H   H143      1.0  0.07867  0.51650  0.38689  1.0000
  O  Te71      1.0  0.06839  0.45846  0.72994  1.0000
  O  Te72      1.0  0.01561  0.45293  0.77842  1.0000
  H   H144      1.0  0.03265  0.51169  0.42904  1.0000
  Mg  Mg36      1.0  0.03788  0.43807  0.85862  1.0000
  C   C277      1.0  0.29993  0.46160  0.76092  1.0000
  C   C278      1.0  0.29311  0.47728  0.67717  1.0000
  C  Sn73      1.0  0.31122  0.49343  0.57600  1.0000
  C  Sn74      1.0  0.33661  0.49383  0.55859  1.0000
  C   C279      1.0  0.34323  0.47806  0.64285  1.0000
  C   C280      1.0  0.32496  0.46198  0.74378  1.0000
  H   H145      1.0  0.28578  0.44915  0.83898  1.0000
  O  Te73      1.0  0.30409  0.50898  0.49324  1.0000
  O  Te74      1.0  0.35509  0.50978  0.45824  1.0000
  H   H146      1.0  0.33024  0.44983  0.80856  1.0000
  Mg  Mg37      1.0  0.33610  0.52745  0.37077  1.0000
  C   C281      1.0  0.53796  0.83809  0.76047  1.0000
  C   C282      1.0  0.52235  0.81570  0.67575  1.0000
  C  Sn75      1.0  0.50641  0.81785  0.57410  1.0000
  C  Sn76      1.0  0.50613  0.84290  0.55718  1.0000
  C   C283      1.0  0.52183  0.86518  0.64240  1.0000
  C   C284      1.0  0.53770  0.86281  0.74382  1.0000
  H   H147      1.0  0.55025  0.83626  0.83890  1.0000
  O  Te75      1.0  0.49093  0.79528  0.49037  1.0000
  O  Te76      1.0  0.49038  0.84561  0.45637  1.0000
  H   H148      1.0  0.54980  0.88015  0.80935  1.0000
  Mg  Mg38      1.0  0.47275  0.80905  0.36757  1.0000
  C   C285      1.0  0.16174  0.70005  0.76004  1.0000
  C   C286      1.0  0.18427  0.70676  0.67654  1.0000
  C  Sn77      1.0  0.18230  0.68856  0.57565  1.0000
  C  Sn78      1.0  0.15728  0.66321  0.55824  1.0000
  C   C287      1.0  0.13485  0.65670  0.64224  1.0000
  C   C288      1.0  0.13705  0.67505  0.74291  1.0000
  H   H149      1.0  0.16343  0.71426  0.83789  1.0000
  O  Te77      1.0  0.20502  0.69558  0.49314  1.0000
  O  Te78      1.0  0.15474  0.64465  0.45816  1.0000
  H   H150      1.0  0.11959  0.66986  0.80749  1.0000
  Mg  Mg39      1.0  0.19145  0.66349  0.37097  1.0000
  C   C289      1.0  0.70004  0.53836  0.76057  1.0000
  C   C290      1.0  0.70680  0.52258  0.67694  1.0000
  C  Sn79      1.0  0.68868  0.50641  0.57575  1.0000
  C  Sn80      1.0  0.66333  0.50608  0.55819  1.0000
  C   C291      1.0  0.65677  0.52195  0.64232  1.0000
  C   C292      1.0  0.67505  0.53805  0.74329  1.0000
  H   H151      1.0  0.71419  0.55082  0.83865  1.0000
  O  Te79      1.0  0.69576  0.49077  0.49312  1.0000
  O  Te80      1.0  0.64485  0.49012  0.45782  1.0000
  H   H152      1.0  0.66981  0.55028  0.80797  1.0000
  Mg  Mg40      1.0  0.66375  0.47231  0.37055  1.0000
  C   C293      1.0  0.49659  0.16282  0.54152  1.0000
  C   C294      1.0  0.48369  0.14172  0.63582  1.0000
  C  Sn81      1.0  0.46802  0.14397  0.73869  1.0000
  C  Sn82      1.0  0.46525  0.16781  0.74704  1.0000
  C   C295      1.0  0.47822  0.18879  0.65216  1.0000
  C   C296      1.0  0.49386  0.18633  0.54966  1.0000
  H   H153      1.0  0.50868  0.16091  0.46216  1.0000
  O  Te81      1.0  0.45528  0.12271  0.83210  1.0000
  O  Te82      1.0  0.44970  0.17058  0.84881  1.0000
  H   H154      1.0  0.50383  0.20266  0.47661  1.0000
  Mg  Mg41      1.0  0.43627  0.13605  0.95239  1.0000
  C   C297      1.0  0.83718  0.33382  0.54125  1.0000
  C   C298      1.0  0.85843  0.34202  0.63477  1.0000
  C  Sn83      1.0  0.85638  0.32407  0.73691  1.0000
  C  Sn84      1.0  0.83259  0.29743  0.74529  1.0000
  C   C299      1.0  0.81145  0.28942  0.65117  1.0000
  C   C300      1.0  0.81372  0.30755  0.54940  1.0000
  H   H155      1.0  0.83894  0.34784  0.46246  1.0000
  O  Te83      1.0  0.87779  0.33259  0.82956  1.0000
  O  Te84      1.0  0.83001  0.27908  0.84632  1.0000
  H   H156      1.0  0.79727  0.30119  0.47695  1.0000
  Mg  Mg42      1.0  0.86470  0.30020  0.94902  1.0000
  C   C301      1.0  0.50280  0.33431  0.76517  1.0000
  C   C302      1.0  0.49143  0.34521  0.67641  1.0000
  C  Sn85      1.0  0.47434  0.32899  0.57234  1.0000
  C  Sn86      1.0  0.46855  0.30137  0.55713  1.0000
  C   C303      1.0  0.48001  0.29066  0.64651  1.0000
  C   C304      1.0  0.49710  0.30706  0.75027  1.0000
  H   H157      1.0  0.51601  0.34700  0.84550  1.0000
  O  Te85      1.0  0.46316  0.34021  0.48452  1.0000
  O  Te86      1.0  0.45153  0.28471  0.45402  1.0000
  H   H158      1.0  0.50588  0.29862  0.81903  1.0000
  Mg  Mg43      1.0  0.44118  0.30933  0.35978  1.0000
  C   C305      1.0  0.69559  0.16135  0.54462  1.0000
  C   C306      1.0  0.70531  0.18504  0.62358  1.0000
  C  Sn87      1.0  0.68897  0.18613  0.72647  1.0000
  C  Sn88      1.0  0.66242  0.16302  0.75053  1.0000
  C   C307      1.0  0.65288  0.13940  0.67104  1.0000
  C   C308      1.0  0.66940  0.13854  0.56833  1.0000
  H   H159      1.0  0.70837  0.16068  0.46519  1.0000
  O  Te87      1.0  0.69900  0.20997  0.80437  1.0000
  O  Te88      1.0  0.64566  0.16354  0.85273  1.0000
  H   H160      1.0  0.66187  0.12018  0.50727  1.0000
  Mg  Mg44      1.0  0.66847  0.20073  0.93181  1.0000
  C   C309      1.0  0.83859  0.53402  0.54604  1.0000
  C   C310      1.0  0.81487  0.51990  0.62462  1.0000
  C  Sn89      1.0  0.81388  0.50252  0.72732  1.0000
  C  Sn90      1.0  0.83710  0.49926  0.75159  1.0000
  C   C311      1.0  0.86073  0.51350  0.67248  1.0000
  C   C312      1.0  0.86150  0.53083  0.56994  1.0000
  H   H161      1.0  0.83919  0.54744  0.46675  1.0000
  O  Te89      1.0  0.79002  0.48855  0.80485  1.0000
  O  Te90      1.0  0.83667  0.48203  0.85361  1.0000
  H   H162      1.0  0.87987  0.54178  0.50918  1.0000
  Mg  Mg45      1.0  0.79941  0.46740  0.93217  1.0000
  C   C313      1.0  0.53425  0.69555  0.54408  1.0000
  C   C314      1.0  0.52020  0.70521  0.62290  1.0000
  C  Sn91      1.0  0.50287  0.68888  0.72594  1.0000
  C  Sn92      1.0  0.49958  0.66241  0.75030  1.0000
  C   C315      1.0  0.51374  0.65294  0.67094  1.0000
  C   C316      1.0  0.53103  0.66944  0.56807  1.0000
  H   H163      1.0  0.54764  0.70832  0.46453  1.0000
  O  Te91      1.0  0.48898  0.69885  0.80370  1.0000
  O  Te92      1.0  0.48239  0.64567  0.85265  1.0000
  H   H164      1.0  0.54191  0.66196  0.50712  1.0000
  Mg  Mg46      1.0  0.46786  0.66837  0.93144  1.0000
  C   C317      1.0  0.32095  0.81771  0.76020  1.0000
  C   C318      1.0  0.29810  0.81085  0.67880  1.0000
  C  Sn93      1.0  0.29982  0.82863  0.57651  1.0000
  C  Sn94      1.0  0.32492  0.85373  0.55554  1.0000
  C   C319      1.0  0.34767  0.86040  0.63746  1.0000
  C   C320      1.0  0.34572  0.84246  0.73956  1.0000
  H   H165      1.0  0.31945  0.80383  0.83915  1.0000
  O  Te93      1.0  0.27679  0.82145  0.49613  1.0000
  O  Te94      1.0  0.32721  0.87187  0.45400  1.0000
  H   H166      1.0  0.36342  0.84778  0.80251  1.0000
  Mg  Mg47      1.0  0.29011  0.85296  0.37077  1.0000
  C   C321      1.0  0.16134  0.46589  0.54503  1.0000
  C   C322      1.0  0.18501  0.47991  0.62402  1.0000
  C  Sn95      1.0  0.18601  0.49729  0.72695  1.0000
  C  Sn96      1.0  0.16285  0.50066  0.75102  1.0000
  C   C323      1.0  0.13925  0.48653  0.67149  1.0000
  C   C324      1.0  0.13848  0.46919  0.56873  1.0000
  H   H167      1.0  0.16073  0.45247  0.46556  1.0000
  O  Te95      1.0  0.20983  0.51115  0.80490  1.0000
  O  Te96      1.0  0.16329  0.51790  0.85327  1.0000
  H   H168      1.0  0.12014  0.45833  0.50764  1.0000
  Mg  Mg48      1.0  0.20047  0.53236  0.93239  1.0000
