data_image0
_chemical_formula_structural       H303C254N16C2Sn2C2HTe2HMgC2Sn2C2HTe2HMgC2Sn2C2HTe2HMgC2Sn2C2HTe2HMgC2Sn2C2HTe2HMgC2Sn2C2HTe2HMgC2Sn2C2HTe2HMgC2Sn2C2HTe2HMgC2Sn2C2HTe2HMgC2Sn2C2HTe2HMgC2Sn2C2HTe2HMgC2Sn2C2HTe2HMgC2Sn2C2HTe2HMgC2Sn2C2HTe2HMgC2Sn2C2HTe2HMgC2Sn2C2HTe2HMgC2Sn2C2HTe2HMgC2Sn2C2HTe2HMg
_chemical_formula_sum              "H339 C326 N16 Sn36 Te36 Mg18"
_cell_length_a       42.6861
_cell_length_b       42.7439
_cell_length_c       4.69672
_cell_angle_alpha    90.015
_cell_angle_beta     89.7657
_cell_angle_gamma    91.5092

_symmetry_space_group_name_H-M    'P1'
_space_group_IT_number       1

loop_
  _space_group_symop_operation_xyz
  'x, y, z'

loop_
  _atom_site_type_symbol
  _atom_site_label
  _atom_site_symmetry_multiplicity
  _atom_site_fract_x
  _atom_site_fract_y
  _atom_site_fract_z
  _atom_site_occupancy
  H   H1        1.0  0.51860  0.54470  0.89745  1.0000
  H   H2        1.0  0.98119  0.95576  0.40029  1.0000
  H   H3        1.0  0.04240  0.48055  0.65663  1.0000
  H   H4        1.0  0.48082  0.95441  0.34551  1.0000
  H   H5        1.0  0.01849  0.54415  0.85121  1.0000
  H   H6        1.0  0.54466  0.48285  0.09661  1.0000
  H   H7        1.0  0.95737  0.01995  0.59647  1.0000
  H   H8        1.0  0.02159  0.04428  0.39799  1.0000
  H   H9        1.0  0.48182  0.45424  0.90296  1.0000
  H   H10       1.0  0.95485  0.51856  0.65328  1.0000
  H   H11       1.0  0.54437  0.98194  0.14697  1.0000
  H   H12       1.0  0.51856  0.04420  0.34370  1.0000
  H   H13       1.0  0.93506  0.95339  0.69878  1.0000
  H   H14       1.0  0.04293  0.43458  0.95200  1.0000
  H   H15       1.0  0.06454  0.54657  0.55301  1.0000
  H   H16       1.0  0.54856  0.43713  0.80049  1.0000
  H   H17       1.0  0.06733  0.04671  0.69262  1.0000
  H   H18       1.0  0.43588  0.44983  0.20061  1.0000
  H   H19       1.0  0.95298  0.56431  0.95010  1.0000
  H   H20       1.0  0.89737  0.02944  0.22752  1.0000
  H   H21       1.0  0.96487  0.39620  0.48515  1.0000
  H   H22       1.0  0.10304  0.47130  0.03114  1.0000
  H   H23       1.0  0.47359  0.39298  0.27453  1.0000
  H   H24       1.0  0.10457  0.96917  0.23338  1.0000
  H   H25       1.0  0.39443  0.52366  0.72493  1.0000
  H   H26       1.0  0.03021  0.60512  0.48172  1.0000
  H   H27       1.0  0.05559  0.46639  0.29786  1.0000
  H   H28       1.0  0.46777  0.43962  0.54504  1.0000
  H   H29       1.0  0.05804  0.96558  0.95760  1.0000
  H   H30       1.0  0.44141  0.53014  0.45453  1.0000
  H   H31       1.0  0.03375  0.55834  0.20854  1.0000
  H   H32       1.0  0.63068  0.46510  0.09369  1.0000
  H   H33       1.0  0.87327  0.04058  0.60343  1.0000
  H   H34       1.0  0.53847  0.13183  0.33224  1.0000
  H   H35       1.0  0.95243  0.37248  0.86278  1.0000
  H   H36       1.0  0.37151  0.03712  0.13765  1.0000
  H   H37       1.0  0.12940  0.46166  0.66445  1.0000
  H   H38       1.0  0.46473  0.36631  0.90803  1.0000
  H   H39       1.0  0.04805  0.12743  0.40247  1.0000
  H   H40       1.0  0.13033  0.95965  0.60217  1.0000
  H   H41       1.0  0.36912  0.53331  0.09459  1.0000
  H   H42       1.0  0.03945  0.63222  0.84950  1.0000
  H   H43       1.0  0.46040  0.86886  0.35782  1.0000
  H   H44       1.0  0.86822  0.53943  0.65831  1.0000
  H   H45       1.0  0.63066  0.96418  0.14785  1.0000
  H   H46       1.0  0.95888  0.86953  0.38774  1.0000
  H   H47       1.0  0.53754  0.63099  0.89485  1.0000
  H   H48       1.0  0.60695  0.55667  0.37167  1.0000
  H   H49       1.0  0.89165  0.94747  0.87424  1.0000
  H   H50       1.0  0.44720  0.10461  0.63454  1.0000
  H   H51       1.0  0.04678  0.39093  0.12780  1.0000
  H   H52       1.0  0.39130  0.94393  0.87586  1.0000
  H   H53       1.0  0.10678  0.55304  0.37631  1.0000
  H   H54       1.0  0.55569  0.39586  0.61608  1.0000
  H   H55       1.0  0.95376  0.11066  0.12788  1.0000
  H   H56       1.0  0.10833  0.05157  0.88527  1.0000
  H   H57       1.0  0.39285  0.44211  0.37917  1.0000
  H   H58       1.0  0.94749  0.60501  0.13329  1.0000
  H   H59       1.0  0.55364  0.89349  0.61770  1.0000
  H   H60       1.0  0.89089  0.44776  0.37417  1.0000
  H   H61       1.0  0.60690  0.05551  0.86593  1.0000
  H   H62       1.0  0.05248  0.89377  0.12636  1.0000
  H   H63       1.0  0.44564  0.60383  0.61709  1.0000
  H   H64       1.0  0.68224  0.53976  0.13613  1.0000
  H   H65       1.0  0.81990  0.96882  0.64479  1.0000
  H   H66       1.0  0.46614  0.18069  0.38525  1.0000
  H   H67       1.0  0.02469  0.29011  0.52428  1.0000
  H   H68       1.0  0.31940  0.96338  0.10507  1.0000
  H   H69       1.0  0.18215  0.53443  0.61303  1.0000
  H   H70       1.0  0.53934  0.31903  0.85960  1.0000
  H   H71       1.0  0.97811  0.21141  0.74065  1.0000
  H   H72       1.0  0.18181  0.03253  0.64965  1.0000
  H   H73       1.0  0.31670  0.45962  0.14466  1.0000
  H   H74       1.0  0.96625  0.67916  0.90188  1.0000
  H   H75       1.0  0.53354  0.82040  0.39346  1.0000
  H   H76       1.0  0.81643  0.46587  0.61145  1.0000
  H   H77       1.0  0.68148  0.03777  0.09570  1.0000
  H   H78       1.0  0.03253  0.82202  0.34924  1.0000
  H   H79       1.0  0.46443  0.67883  0.84760  1.0000
  H   H80       1.0  0.66594  0.56992  0.91042  1.0000
  H   H81       1.0  0.83180  0.93666  0.40994  1.0000
  H   H82       1.0  0.43555  0.16473  0.16109  1.0000
  H   H83       1.0  0.05092  0.33156  0.68177  1.0000
  H   H84       1.0  0.33197  0.93213  0.33837  1.0000
  H   H85       1.0  0.16613  0.56525  0.83734  1.0000
  H   H86       1.0  0.56918  0.33707  0.08084  1.0000
  H   H87       1.0  0.95108  0.17082  0.57913  1.0000
  H   H88       1.0  0.16824  0.06370  0.41832  1.0000
  H   H89       1.0  0.33370  0.42941  0.92168  1.0000
  H   H90       1.0  0.93511  0.66352  0.67273  1.0000
  H   H91       1.0  0.56545  0.83505  0.15655  1.0000
  H   H92       1.0  0.83132  0.43536  0.84116  1.0000
  H   H93       1.0  0.66603  0.06839  0.32318  1.0000
  H   H94       1.0  0.06453  0.83539  0.58730  1.0000
  H   H95       1.0  0.43351  0.66223  0.07708  1.0000
  H   H96       1.0  0.69304  0.45578  0.62129  1.0000
  H   H97       1.0  0.82023  0.05737  0.20703  1.0000
  H   H98       1.0  0.55030  0.19429  0.86157  1.0000
  H   H99       1.0  0.93477  0.31395  0.42205  1.0000
  H   H100      1.0  0.31750  0.05184  0.53840  1.0000
  H   H101      1.0  0.19115  0.45032  0.13128  1.0000
  H   H102      1.0  0.45494  0.30374  0.37791  1.0000
  H   H103      1.0  0.06719  0.18594  0.84496  1.0000
  H   H104      1.0  0.19192  0.94859  0.13357  1.0000
  H   H105      1.0  0.30687  0.54344  0.62653  1.0000
  H   H106      1.0  0.05013  0.69428  0.38369  1.0000
  H   H107      1.0  0.44499  0.81483  0.96068  1.0000
  H   H108      1.0  0.80623  0.54990  0.12959  1.0000
  H   H109      1.0  0.69284  0.95447  0.61364  1.0000
  H   H110      1.0  0.94390  0.81544  0.78404  1.0000
  H   H111      1.0  0.54828  0.69330  0.36144  1.0000
  H   H112      1.0  0.68672  0.45535  0.02844  1.0000
  H   H113      1.0  0.82740  0.06311  0.54922  1.0000
  H   H114      1.0  0.54942  0.18844  0.26891  1.0000
  H   H115      1.0  0.93547  0.31884  0.82185  1.0000
  H   H116      1.0  0.29077  0.05201  0.98812  1.0000
  H   H117      1.0  0.18535  0.45091  0.72547  1.0000
  H   H118      1.0  0.45558  0.30977  0.97165  1.0000
  H   H119      1.0  0.06635  0.18120  0.44367  1.0000
  H   H120      1.0  0.20361  0.91795  0.72948  1.0000
  H   H121      1.0  0.31300  0.54357  0.03315  1.0000
  H   H122      1.0  0.04925  0.68900  0.78906  1.0000
  H   H123      1.0  0.43886  0.82150  0.30396  1.0000
  H   H124      1.0  0.81227  0.54991  0.72235  1.0000
  H   H125      1.0  0.68715  0.95451  0.20732  1.0000
  H   H126      1.0  0.93779  0.82175  0.44167  1.0000
  H   H127      1.0  0.54791  0.68775  0.95506  1.0000
  H   H128      1.0  0.66478  0.42093  0.12240  1.0000
  H   H129      1.0  0.81257  0.09375  0.77018  1.0000
  H   H130      1.0  0.58344  0.16726  0.35325  1.0000
  H   H131      1.0  0.90255  0.34128  0.91635  1.0000
  H   H132      1.0  0.32480  0.05830  0.19382  1.0000
  H   H133      1.0  0.16290  0.41665  0.63785  1.0000
  H   H134      1.0  0.42075  0.32957  0.88510  1.0000
  H   H135      1.0  0.09844  0.15748  0.35178  1.0000
  H   H136      1.0  0.18631  0.94915  0.54023  1.0000
  H   H137      1.0  0.33531  0.57782  0.12388  1.0000
  H   H138      1.0  0.08393  0.66881  0.87282  1.0000
  H   H139      1.0  0.40821  0.80516  0.52641  1.0000
  H   H140      1.0  0.83461  0.58419  0.63053  1.0000
  H   H141      1.0  0.66530  0.91989  0.11883  1.0000
  H   H142      1.0  0.90751  0.80469  0.22145  1.0000
  H   H143      1.0  0.58233  0.66721  0.86628  1.0000
  H   H144      1.0  0.70475  0.42468  0.21962  1.0000
  H   H145      1.0  0.79327  0.05642  0.75578  1.0000
  H   H146      1.0  0.58109  0.20703  0.45555  1.0000
  H   H147      1.0  0.90355  0.30159  0.02025  1.0000
  H   H148      1.0  0.31042  0.08913  0.97358  1.0000
  H   H149      1.0  0.20279  0.41983  0.53397  1.0000
  H   H150      1.0  0.42472  0.28991  0.78466  1.0000
  H   H151      1.0  0.09900  0.19718  0.24616  1.0000
  H   H152      1.0  0.16373  0.91490  0.62781  1.0000
  H   H153      1.0  0.29536  0.57452  0.22507  1.0000
  H   H154      1.0  0.08025  0.70835  0.97818  1.0000
  H   H155      1.0  0.44562  0.78795  0.51092  1.0000
  H   H156      1.0  0.79467  0.58086  0.53162  1.0000
  H   H157      1.0  0.70514  0.92380  0.01461  1.0000
  H   H158      1.0  0.94533  0.78837  0.23410  1.0000
  H   H159      1.0  0.57897  0.70680  0.76279  1.0000
  H   H160      1.0  0.66239  0.40619  0.66970  1.0000
  H   H161      1.0  0.85490  0.10329  0.12107  1.0000
  H   H162      1.0  0.59927  0.16513  0.89979  1.0000
  H   H163      1.0  0.88940  0.34810  0.45184  1.0000
  H   H164      1.0  0.35114  0.09869  0.61026  1.0000
  H   H165      1.0  0.15913  0.40148  0.09298  1.0000
  H   H166      1.0  0.40518  0.33159  0.34095  1.0000
  H   H167      1.0  0.11171  0.15091  0.81153  1.0000
  H   H168      1.0  0.16041  0.89948  0.17283  1.0000
  H   H169      1.0  0.33819  0.59274  0.67082  1.0000
  H   H170      1.0  0.09946  0.66574  0.41615  1.0000
  H   H171      1.0  0.39846  0.84630  0.88301  1.0000
  H   H172      1.0  0.83758  0.59907  0.08204  1.0000
  H   H173      1.0  0.66212  0.90484  0.57168  1.0000
  H   H174      1.0  0.89710  0.84630  0.86579  1.0000
  H   H175      1.0  0.59754  0.66433  0.32008  1.0000
  H   H176      1.0  0.63173  0.42108  0.45949  1.0000
  H   H177      1.0  0.87972  0.08136  0.89661  1.0000
  H   H178      1.0  0.58340  0.13423  0.68819  1.0000
  H   H179      1.0  0.90915  0.37723  0.24473  1.0000
  H   H180      1.0  0.37672  0.07780  0.83347  1.0000
  H   H181      1.0  0.12892  0.41762  0.30381  1.0000
  H   H182      1.0  0.42037  0.36302  0.55058  1.0000
  H   H183      1.0  0.09162  0.12202  0.01877  1.0000
  H   H184      1.0  0.13000  0.91529  0.96560  1.0000
  H   H185      1.0  0.36861  0.57727  0.45863  1.0000
  H   H186      1.0  0.08370  0.63451  0.20762  1.0000
  H   H187      1.0  0.41977  0.87268  0.65821  1.0000
  H   H188      1.0  0.86792  0.58375  0.29365  1.0000
  H   H189      1.0  0.63156  0.91997  0.78428  1.0000
  H   H190      1.0  0.91782  0.87263  0.09396  1.0000
  H   H191      1.0  0.58163  0.63317  0.53006  1.0000
  H   H192      1.0  0.63863  0.43571  0.81006  1.0000
  H   H193      1.0  0.87596  0.07196  0.26291  1.0000
  H   H194      1.0  0.56931  0.14037  0.04203  1.0000
  H   H195      1.0  0.92185  0.36890  0.59674  1.0000
  H   H196      1.0  0.37284  0.06771  0.46915  1.0000
  H   H197      1.0  0.13642  0.43162  0.95105  1.0000
  H   H198      1.0  0.43452  0.35690  0.19678  1.0000
  H   H199      1.0  0.07875  0.13077  0.66852  1.0000
  H   H200      1.0  0.13733  0.92929  0.31763  1.0000
  H   H201      1.0  0.36144  0.56287  0.81027  1.0000
  H   H202      1.0  0.06973  0.64100  0.56129  1.0000
  H   H203      1.0  0.42958  0.86943  0.02297  1.0000
  H   H204      1.0  0.86095  0.56918  0.94280  1.0000
  H   H205      1.0  0.63850  0.93445  0.43246  1.0000
  H   H206      1.0  0.92804  0.87001  0.72878  1.0000
  H   H207      1.0  0.56757  0.63987  0.17825  1.0000
  H   H208      1.0  0.65826  0.58224  0.26984  1.0000
  H   H209      1.0  0.84024  0.92442  0.76983  1.0000
  H   H210      1.0  0.42283  0.15553  0.52360  1.0000
  H   H211      1.0  0.06400  0.33505  0.03496  1.0000
  H   H212      1.0  0.34031  0.91969  0.97728  1.0000
  H   H213      1.0  0.15893  0.57755  0.47906  1.0000
  H   H214      1.0  0.58160  0.34565  0.72039  1.0000
  H   H215      1.0  0.93793  0.16743  0.22562  1.0000
  H   H216      1.0  0.15975  0.07612  0.78000  1.0000
  H   H217      1.0  0.34059  0.41691  0.27996  1.0000
  H   H218      1.0  0.92267  0.65494  0.03321  1.0000
  H   H219      1.0  0.57766  0.84381  0.51591  1.0000
  H   H220      1.0  0.83971  0.42289  0.47983  1.0000
  H   H221      1.0  0.65868  0.08091  0.96447  1.0000
  H   H222      1.0  0.07662  0.84449  0.22691  1.0000
  H   H223      1.0  0.42084  0.65403  0.71760  1.0000
  H   H224      1.0  0.69343  0.58130  0.46654  1.0000
  H   H225      1.0  0.80494  0.92507  0.96691  1.0000
  H   H226      1.0  0.42360  0.19064  0.72122  1.0000
  H   H227      1.0  0.05532  0.30120  0.23603  1.0000
  H   H228      1.0  0.30512  0.91991  0.78090  1.0000
  H   H229      1.0  0.19401  0.57592  0.27883  1.0000
  H   H230      1.0  0.58102  0.31057  0.52147  1.0000
  H   H231      1.0  0.94724  0.20111  0.02510  1.0000
  H   H232      1.0  0.19487  0.07574  0.97676  1.0000
  H   H233      1.0  0.30558  0.41861  0.48099  1.0000
  H   H234      1.0  0.92336  0.69019  0.23028  1.0000
  H   H235      1.0  0.57702  0.80859  0.71271  1.0000
  H   H236      1.0  0.80457  0.42327  0.28312  1.0000
  H   H237      1.0  0.69375  0.07963  0.76407  1.0000
  H   H238      1.0  0.07676  0.80939  0.02865  1.0000
  H   H239      1.0  0.42217  0.68922  0.51979  1.0000
  H   H240      1.0  0.66814  0.61317  0.51686  1.0000
  H   H241      1.0  0.83029  0.89330  0.01420  1.0000
  H   H242      1.0  0.39177  0.16362  0.77112  1.0000
  H   H243      1.0  0.09266  0.32029  0.28083  1.0000
  H   H244      1.0  0.33099  0.88858  0.73121  1.0000
  H   H245      1.0  0.16940  0.60835  0.23171  1.0000
  H   H246      1.0  0.61268  0.33781  0.47208  1.0000
  H   H247      1.0  0.90955  0.18284  0.98093  1.0000
  H   H248      1.0  0.16915  0.10726  0.02545  1.0000
  H   H249      1.0  0.33018  0.38616  0.52836  1.0000
  H   H250      1.0  0.89164  0.66310  0.28108  1.0000
  H   H251      1.0  0.60880  0.83566  0.76000  1.0000
  H   H252      1.0  0.83031  0.39177  0.23358  1.0000
  H   H253      1.0  0.66873  0.11169  0.71567  1.0000
  H   H254      1.0  0.10798  0.83708  0.98088  1.0000
  H   H255      1.0  0.39004  0.66260  0.47040  1.0000
  H   H256      1.0  0.60887  0.57303  0.97302  1.0000
  H   H257      1.0  0.88851  0.93215  0.48101  1.0000
  H   H258      1.0  0.43141  0.10908  0.25065  1.0000
  H   H259      1.0  0.06472  0.38837  0.70392  1.0000
  H   H260      1.0  0.38874  0.92893  0.26434  1.0000
  H   H261      1.0  0.10894  0.56955  0.78302  1.0000
  H   H262      1.0  0.57215  0.39374  0.01061  1.0000
  H   H263      1.0  0.93609  0.11428  0.55479  1.0000
  H   H264      1.0  0.11275  0.06747  0.50879  1.0000
  H   H265      1.0  0.39115  0.42563  0.96978  1.0000
  H   H266      1.0  0.93122  0.60657  0.73892  1.0000
  H   H267      1.0  0.56937  0.89203  0.22487  1.0000
  H   H268      1.0  0.88703  0.43183  0.75471  1.0000
  H   H269      1.0  0.60879  0.07185  0.26842  1.0000
  H   H270      1.0  0.06804  0.89194  0.50974  1.0000
  H   H271      1.0  0.42945  0.60522  0.01399  1.0000
  H   H272      1.0  0.60483  0.58969  0.63267  1.0000
  H   H273      1.0  0.89306  0.91545  0.14132  1.0000
  H   H274      1.0  0.41655  0.10114  0.90924  1.0000
  H   H275      1.0  0.08318  0.38657  0.36718  1.0000
  H   H276      1.0  0.39368  0.91256  0.60394  1.0000
  H   H277      1.0  0.10581  0.58675  0.12275  1.0000
  H   H278      1.0  0.58827  0.39982  0.35098  1.0000
  H   H279      1.0  0.91749  0.11651  0.89080  1.0000
  H   H280      1.0  0.10531  0.08179  0.16650  1.0000
  H   H281      1.0  0.39377  0.40798  0.63156  1.0000
  H   H282      1.0  0.91473  0.60138  0.39867  1.0000
  H   H283      1.0  0.58603  0.89733  0.88432  1.0000
  H   H284      1.0  0.89410  0.41752  0.09800  1.0000
  H   H285      1.0  0.60532  0.08895  0.60799  1.0000
  H   H286      1.0  0.08388  0.89850  0.85017  1.0000
  H   H287      1.0  0.41278  0.60035  0.35540  1.0000
  H   H288      1.0  0.62770  0.60950  0.89387  1.0000
  H   H289      1.0  0.86905  0.89610  0.39868  1.0000
  H   H290      1.0  0.39496  0.12448  0.14855  1.0000
  H   H291      1.0  0.09708  0.36377  0.65221  1.0000
  H   H292      1.0  0.37037  0.89233  0.34814  1.0000
  H   H293      1.0  0.12895  0.60555  0.85614  1.0000
  H   H294      1.0  0.60876  0.37758  0.09555  1.0000
  H   H295      1.0  0.90425  0.13956  0.60505  1.0000
  H   H296      1.0  0.12970  0.10390  0.40225  1.0000
  H   H297      1.0  0.37116  0.38946  0.90346  1.0000
  H   H298      1.0  0.89494  0.62372  0.65848  1.0000
  H   H299      1.0  0.60562  0.87476  0.14195  1.0000
  H   H300      1.0  0.87009  0.39533  0.86002  1.0000
  H   H301      1.0  0.62814  0.10818  0.34124  1.0000
  H   H302      1.0  0.10447  0.87568  0.59886  1.0000
  H   H303      1.0  0.39323  0.62261  0.09527  1.0000
  C   C1        1.0  0.96371  0.97315  0.36992  1.0000
  C   C2        1.0  0.02436  0.46285  0.62394  1.0000
  C   C3        1.0  0.03610  0.52694  0.88300  1.0000
  C   C4        1.0  0.52783  0.46397  0.12820  1.0000
  C   C5        1.0  0.03895  0.02677  0.36727  1.0000
  C   C6        1.0  0.46349  0.47066  0.87034  1.0000
  C   C7        1.0  0.97248  0.53671  0.62235  1.0000
  C   C8        1.0  0.93659  0.97118  0.53458  1.0000
  C   C9        1.0  0.02524  0.43578  0.78770  1.0000
  C   C10       1.0  0.06320  0.52895  0.71864  1.0000
  C   C11       1.0  0.53064  0.43713  0.96435  1.0000
  C   C12       1.0  0.06590  0.02867  0.53114  1.0000
  C   C13       1.0  0.43646  0.46752  0.03526  1.0000
  C   C14       1.0  0.97087  0.56360  0.78647  1.0000
  C   C15       1.0  0.91200  0.99222  0.50063  1.0000
  C   C16       1.0  0.00296  0.41103  0.75588  1.0000
  C   C17       1.0  0.08803  0.50822  0.75405  1.0000
  C   C18       1.0  0.51035  0.41083  0.99814  1.0000
  C   C19       1.0  0.09019  0.00713  0.50292  1.0000
  C   C20       1.0  0.41085  0.48736  0.00125  1.0000
  C   C21       1.0  0.99241  0.58891  0.75495  1.0000
  C   C22       1.0  0.91557  0.01304  0.27333  1.0000
  C   C23       1.0  0.98223  0.41445  0.52957  1.0000
  C   C24       1.0  0.08464  0.48747  0.98262  1.0000
  C   C25       1.0  0.48942  0.41254  0.22683  1.0000
  C   C26       1.0  0.08667  0.98609  0.27670  1.0000
  C   C27       1.0  0.41341  0.50812  0.77210  1.0000
  C   C28       1.0  0.01338  0.58632  0.52740  1.0000
  C   C29       1.0  0.94306  0.01508  0.11030  1.0000
  C   C30       1.0  0.98147  0.44180  0.36651  1.0000
  C   C31       1.0  0.05701  0.48529  0.14449  1.0000
  C   C32       1.0  0.48664  0.43980  0.39019  1.0000
  C   C33       1.0  0.05945  0.98450  0.11100  1.0000
  C   C34       1.0  0.44086  0.51128  0.60861  1.0000
  C   C35       1.0  0.01488  0.55902  0.36304  1.0000
  C   C36       1.0  0.96935  0.99684  0.16830  1.0000
  C   C37       1.0  0.00080  0.46830  0.42336  1.0000
  C   C38       1.0  0.03056  0.50329  0.08494  1.0000
  C   C39       1.0  0.50399  0.46762  0.33075  1.0000
  C   C40       1.0  0.03322  0.00299  0.16681  1.0000
  C   C41       1.0  0.46813  0.49451  0.66810  1.0000
  C   C42       1.0  0.99619  0.53201  0.42102  1.0000
  C   C43       1.0  0.63388  0.48492  0.23657  1.0000
  C   C44       1.0  0.86892  0.02080  0.74542  1.0000
  C   C45       1.0  0.51902  0.13430  0.47998  1.0000
  C   C46       1.0  0.97192  0.36816  0.00440  1.0000
  C   C47       1.0  0.36744  0.01706  0.99840  1.0000
  C   C48       1.0  0.13280  0.48122  0.51871  1.0000
  C   C49       1.0  0.48441  0.36434  0.76216  1.0000
  C   C50       1.0  0.02881  0.13219  0.25926  1.0000
  C   C51       1.0  0.13374  0.97931  0.74652  1.0000
  C   C52       1.0  0.36580  0.51360  0.23874  1.0000
  C   C53       1.0  0.01977  0.63443  0.99514  1.0000
  C   C54       1.0  0.48046  0.86591  0.49682  1.0000
  C   C55       1.0  0.86491  0.51976  0.51394  1.0000
  C   C56       1.0  0.63384  0.98387  0.00331  1.0000
  C   C57       1.0  0.97901  0.86656  0.24791  1.0000
  C   C58       1.0  0.51787  0.63335  0.75084  1.0000
  C   C59       1.0  0.65665  0.48307  0.44675  1.0000
  C   C60       1.0  0.84712  0.02418  0.96363  1.0000
  C   C61       1.0  0.52175  0.15724  0.68967  1.0000
  C   C62       1.0  0.96704  0.34694  0.22507  1.0000
  C   C63       1.0  0.34556  0.01981  0.78130  1.0000
  C   C64       1.0  0.15562  0.47880  0.30779  1.0000
  C   C65       1.0  0.48253  0.34141  0.55204  1.0000
  C   C66       1.0  0.03428  0.15344  0.03975  1.0000
  C   C67       1.0  0.15625  0.97679  0.95820  1.0000
  C   C68       1.0  0.34290  0.51567  0.44948  1.0000
  C   C69       1.0  0.02204  0.65717  0.20665  1.0000
  C   C70       1.0  0.47758  0.84401  0.71533  1.0000
  C   C71       1.0  0.84221  0.52204  0.30347  1.0000
  C   C72       1.0  0.65662  0.98186  0.79172  1.0000
  C   C73       1.0  0.97625  0.84473  0.02890  1.0000
  C   C74       1.0  0.52019  0.65614  0.53951  1.0000
  C   C75       1.0  0.66231  0.50860  0.64109  1.0000
  C   C76       1.0  0.83925  0.99853  0.15048  1.0000
  C   C77       1.0  0.49654  0.16229  0.88734  1.0000
  C   C78       1.0  0.99256  0.33940  0.40530  1.0000
  C   C79       1.0  0.33828  0.99390  0.59636  1.0000
  C   C80       1.0  0.16176  0.50405  0.11118  1.0000
  C   C81       1.0  0.50804  0.33716  0.35576  1.0000
  C   C82       1.0  0.00907  0.16152  0.85809  1.0000
  C   C83       1.0  0.16247  0.00217  0.15294  1.0000
  C   C84       1.0  0.33711  0.49029  0.64554  1.0000
  C   C85       1.0  0.99661  0.66183  0.40252  1.0000
  C   C86       1.0  0.50349  0.83791  0.89982  1.0000
  C   C87       1.0  0.83618  0.49665  0.10832  1.0000
  C   C88       1.0  0.66228  0.00727  0.59594  1.0000
  C   C89       1.0  0.00227  0.83869  0.84373  1.0000
  C   C90       1.0  0.49480  0.66081  0.34491  1.0000
  C   C91       1.0  0.64423  0.53644  0.59773  1.0000
  C   C92       1.0  0.85553  0.96962  0.10305  1.0000
  C   C93       1.0  0.46836  0.14318  0.85046  1.0000
  C   C94       1.0  0.02222  0.35499  0.35673  1.0000
  C   C95       1.0  0.35499  0.96534  0.64579  1.0000
  C   C96       1.0  0.14395  0.53215  0.15201  1.0000
  C   C97       1.0  0.53571  0.35705  0.39516  1.0000
  C   C98       1.0  0.97910  0.14648  0.90383  1.0000
  C   C99       1.0  0.14521  0.03051  0.10975  1.0000
  C   C100      1.0  0.35533  0.46247  0.60433  1.0000
  C   C101      1.0  0.96837  0.64285  0.35993  1.0000
  C   C102      1.0  0.53212  0.85615  0.84966  1.0000
  C   C103      1.0  0.85386  0.46858  0.15092  1.0000
  C   C104      1.0  0.64420  0.03515  0.63842  1.0000
  C   C105      1.0  0.03097  0.85671  0.89397  1.0000
  C   C106      1.0  0.46661  0.64173  0.38936  1.0000
  C   C107      1.0  0.62050  0.53567  0.39498  1.0000
  C   C108      1.0  0.87927  0.96920  0.89876  1.0000
  C   C109      1.0  0.46845  0.11906  0.65073  1.0000
  C   C110      1.0  0.02431  0.37871  0.15317  1.0000
  C   C111      1.0  0.37860  0.96543  0.84969  1.0000
  C   C112      1.0  0.12003  0.53184  0.35452  1.0000
  C   C113      1.0  0.53483  0.38092  0.59676  1.0000
  C   C114      1.0  0.97643  0.12253  0.10506  1.0000
  C   C115      1.0  0.12154  0.03032  0.90659  1.0000
  C   C116      1.0  0.37920  0.46306  0.40102  1.0000
  C   C117      1.0  0.96877  0.61923  0.15614  1.0000
  C   C118      1.0  0.53208  0.87971  0.64460  1.0000
  C   C119      1.0  0.87761  0.46897  0.35326  1.0000
  C   C120      1.0  0.62043  0.03450  0.84242  1.0000
  C   C121      1.0  0.03086  0.88012  0.10002  1.0000
  C   C122      1.0  0.46692  0.61810  0.59348  1.0000
  C   C123      1.0  0.61478  0.51093  0.20372  1.0000
  C   C124      1.0  0.88628  0.99363  0.70760  1.0000
  C   C125      1.0  0.49270  0.11407  0.45415  1.0000
  C   C126      1.0  0.00020  0.38555  0.96390  1.0000
  C   C127      1.0  0.38520  0.99017  0.03859  1.0000
  C   C128      1.0  0.11384  0.50738  0.54789  1.0000
  C   C129      1.0  0.51019  0.38517  0.79104  1.0000
  C   C130      1.0  0.00023  0.11515  0.29575  1.0000
  C   C131      1.0  0.11539  0.00587  0.71313  1.0000
  C   C132      1.0  0.38505  0.48764  0.20817  1.0000
  C   C133      1.0  0.99343  0.61440  0.96332  1.0000
  C   C134      1.0  0.50741  0.88500  0.45531  1.0000
  C   C135      1.0  0.88369  0.49349  0.54619  1.0000
  C   C136      1.0  0.61467  0.00986  0.03504  1.0000
  C   C137      1.0  0.00606  0.88543  0.28997  1.0000
  C   C138      1.0  0.49154  0.61326  0.78472  1.0000
  C   C139      1.0  0.69452  0.51933  0.05880  1.0000
  C   C140      1.0  0.80655  0.98826  0.56236  1.0000
  C   C141      1.0  0.48641  0.19412  0.30489  1.0000
  C   C142      1.0  0.00516  0.29465  0.66898  1.0000
  C   C143      1.0  0.30592  0.98288  0.18525  1.0000
  C   C144      1.0  0.19435  0.51409  0.69261  1.0000
  C   C145      1.0  0.51910  0.30544  0.93822  1.0000
  C   C146      1.0  0.99744  0.20651  0.59492  1.0000
  C   C147      1.0  0.19447  0.01243  0.57042  1.0000
  C   C148      1.0  0.30454  0.47998  0.06477  1.0000
  C   C149      1.0  0.98610  0.69319  0.82137  1.0000
  C   C150      1.0  0.51421  0.80587  0.31101  1.0000
  C   C151      1.0  0.80404  0.48617  0.69029  1.0000
  C   C152      1.0  0.69435  0.01789  0.17593  1.0000
  C   C153      1.0  0.01341  0.80711  0.43128  1.0000
  C   C154      1.0  0.48459  0.69244  0.92621  1.0000
  C   C155      1.0  0.67286  0.45200  0.48109  1.0000
  C   C156      1.0  0.83535  0.05732  0.01028  1.0000
  C   C157      1.0  0.55332  0.17430  0.71927  1.0000
  C   C158      1.0  0.93390  0.33361  0.27192  1.0000
  C   C159      1.0  0.33291  0.05253  0.73182  1.0000
  C   C160      1.0  0.17104  0.44729  0.27500  1.0000
  C   C161      1.0  0.45141  0.32359  0.52082  1.0000
  C   C162      1.0  0.06764  0.16619  0.99440  1.0000
  C   C163      1.0  0.17183  0.94538  0.99119  1.0000
  C   C164      1.0  0.32703  0.54694  0.48419  1.0000
  C   C165      1.0  0.05338  0.67456  0.23853  1.0000
  C   C166      1.0  0.44464  0.83000  0.76518  1.0000
  C   C167      1.0  0.82641  0.55334  0.27031  1.0000
  C   C168      1.0  0.67280  0.95078  0.75714  1.0000
  C   C169      1.0  0.94343  0.83045  0.98093  1.0000
  C   C170      1.0  0.55159  0.67344  0.50456  1.0000
  C   C171      1.0  0.65105  0.56958  0.71541  1.0000
  C   C172      1.0  0.84716  0.93662  0.21752  1.0000
  C   C173      1.0  0.43544  0.14922  0.97051  1.0000
  C   C174      1.0  0.05366  0.34510  0.47715  1.0000
  C   C175      1.0  0.34727  0.93227  0.53020  1.0000
  C   C176      1.0  0.15134  0.56518  0.03402  1.0000
  C   C177      1.0  0.56888  0.35210  0.27506  1.0000
  C   C178      1.0  0.94797  0.15722  0.78295  1.0000
  C   C179      1.0  0.15278  0.06353  0.22754  1.0000
  C   C180      1.0  0.34831  0.42947  0.72379  1.0000
  C   C181      1.0  0.93524  0.64851  0.47845  1.0000
  C   C182      1.0  0.56529  0.85018  0.96315  1.0000
  C   C183      1.0  0.84665  0.43555  0.03283  1.0000
  C   C184      1.0  0.65121  0.06822  0.51971  1.0000
  C   C185      1.0  0.06423  0.85075  0.77925  1.0000
  C   C186      1.0  0.43355  0.64734  0.27220  1.0000
  C   C187      1.0  0.66879  0.58775  0.48282  1.0000
  C   C188      1.0  0.82960  0.91874  0.98246  1.0000
  C   C189      1.0  0.41723  0.16568  0.73677  1.0000
  C   C190      1.0  0.06752  0.32407  0.24948  1.0000
  C   C191      1.0  0.32989  0.91397  0.76470  1.0000
  C   C192      1.0  0.16953  0.58290  0.26513  1.0000
  C   C193      1.0  0.58724  0.33557  0.50669  1.0000
  C   C194      1.0  0.93459  0.17849  0.01125  1.0000
  C   C195      1.0  0.17013  0.08183  0.99267  1.0000
  C   C196      1.0  0.33006  0.41160  0.49425  1.0000
  C   C197      1.0  0.91709  0.66521  0.24642  1.0000
  C   C198      1.0  0.58333  0.83356  0.72832  1.0000
  C   C199      1.0  0.82931  0.41718  0.26713  1.0000
  C   C200      1.0  0.66917  0.08627  0.75017  1.0000
  C   C201      1.0  0.08253  0.83448  0.01370  1.0000
  C   C202      1.0  0.41550  0.66432  0.50439  1.0000
  C   C203      1.0  0.62120  0.58637  0.80737  1.0000
  C   C204      1.0  0.87633  0.91909  0.31369  1.0000
  C   C205      1.0  0.41861  0.11908  0.07379  1.0000
  C   C206      1.0  0.07591  0.37276  0.55250  1.0000
  C   C207      1.0  0.37689  0.91555  0.43229  1.0000
  C   C208      1.0  0.12185  0.58270  0.94557  1.0000
  C   C209      1.0  0.58542  0.38276  0.17944  1.0000
  C   C210      1.0  0.92515  0.13012  0.70585  1.0000
  C   C211      1.0  0.12329  0.08016  0.33006  1.0000
  C   C212      1.0  0.37802  0.41221  0.81043  1.0000
  C   C213      1.0  0.91808  0.61810  0.57246  1.0000
  C   C214      1.0  0.58253  0.88052  0.05732  1.0000
  C   C215      1.0  0.87632  0.41910  0.93250  1.0000
  C   C216      1.0  0.62145  0.08522  0.43094  1.0000
  C   C217      1.0  0.08111  0.88115  0.68071  1.0000
  C   C218      1.0  0.41631  0.61693  0.18064  1.0000
  C   C219      1.0  0.68314  0.43769  0.19593  1.0000
  C   C220      1.0  0.81618  0.06841  0.76141  1.0000
  C   C221      1.0  0.56736  0.18517  0.43223  1.0000
  C   C222      1.0  0.91813  0.32285  0.99107  1.0000
  C   C223      1.0  0.31379  0.06376  0.98240  1.0000
  C   C224      1.0  0.18136  0.43312  0.55999  1.0000
  C   C225      1.0  0.43758  0.31229  0.80748  1.0000
  C   C226      1.0  0.08361  0.17648  0.27564  1.0000
  C   C227      1.0  0.18223  0.93131  0.70522  1.0000
  C   C228      1.0  0.31682  0.56126  0.19979  1.0000
  C   C229      1.0  0.06724  0.68609  0.95270  1.0000
  C   C230      1.0  0.43357  0.81017  0.51641  1.0000
  C   C231      1.0  0.81614  0.56762  0.55565  1.0000
  C   C232      1.0  0.68347  0.93671  0.04135  1.0000
  C   C233      1.0  0.93276  0.81029  0.22956  1.0000
  C   C234      1.0  0.56574  0.68467  0.78904  1.0000
  C   C235      1.0  0.64986  0.42743  0.61551  1.0000
  C   C236      1.0  0.86329  0.07972  0.07494  1.0000
  C   C237      1.0  0.57763  0.15198  0.84740  1.0000
  C   C238      1.0  0.91246  0.35861  0.40086  1.0000
  C   C239      1.0  0.36018  0.07544  0.65816  1.0000
  C   C240      1.0  0.14727  0.42319  0.14597  1.0000
  C   C241      1.0  0.42652  0.34528  0.39237  1.0000
  C   C242      1.0  0.08852  0.14081  0.86393  1.0000
  C   C243      1.0  0.14831  0.92107  0.12161  1.0000
  C   C244      1.0  0.35038  0.57127  0.61618  1.0000
  C   C245      1.0  0.07789  0.65241  0.36533  1.0000
  C   C246      1.0  0.42186  0.85632  0.83487  1.0000
  C   C247      1.0  0.84978  0.57764  0.13705  1.0000
  C   C248      1.0  0.64969  0.92617  0.62641  1.0000
  C   C249      1.0  0.92032  0.85656  0.91537  1.0000
  C   C250      1.0  0.57590  0.65119  0.37354  1.0000
  C   C251      1.0  0.50007  0.49934  0.49896  1.0000
  C   C252      1.0  0.00123  0.99995  0.99853  1.0000
  C   C253      1.0  0.49993  0.99944  0.74664  1.0000
  C   C254      1.0  0.99856  0.50013  0.25383  1.0000
  N   N1        1.0  0.68641  0.50355  0.83053  1.0000
  N   N2        1.0  0.81450  0.00416  0.33421  1.0000
  N   N3        1.0  0.50198  0.18687  0.07429  1.0000
  N   N4        1.0  0.98672  0.31780  0.62436  1.0000
  N   N5        1.0  0.31363  0.99903  0.41208  1.0000
  N   N6        1.0  0.18601  0.49861  0.92248  1.0000
  N   N7        1.0  0.50325  0.31259  0.16745  1.0000
  N   N8        1.0  0.01543  0.18300  0.63922  1.0000
  N   N9        1.0  0.18663  0.99677  0.34082  1.0000
  N   N10       1.0  0.31284  0.49546  0.83485  1.0000
  N   N11       1.0  0.00178  0.68634  0.59053  1.0000
  N   N12       1.0  0.49826  0.81285  0.08352  1.0000
  N   N13       1.0  0.81206  0.50184  0.91946  1.0000
  N   N14       1.0  0.68657  0.00230  0.40666  1.0000
  N   N15       1.0  0.99721  0.81370  0.65957  1.0000
  N   N16       1.0  0.50013  0.68527  0.15598  1.0000
  C   C255      1.0  0.44048  0.96310  0.25769  1.0000
  C   C256      1.0  0.42557  0.99019  0.17096  1.0000
  C  Sn1       1.0  0.39851  0.01627  0.35007  1.0000
  C  Sn2       1.0  0.41305  0.01514  0.62087  1.0000
  C   C257      1.0  0.45429  0.98793  0.70558  1.0000
  C   C258      1.0  0.45483  0.96197  0.52471  1.0000
  H   H304      1.0  0.44091  0.94302  0.11771  1.0000
  O  Te1       1.0  0.38350  0.04314  0.26012  1.0000
  O  Te2       1.0  0.41272  0.04087  0.80406  1.0000
  H   H305      1.0  0.46639  0.94100  0.59185  1.0000
  Mg  Mg1       1.0  0.38931  0.07217  0.58559  1.0000
  C   C259      1.0  0.24989  0.51728  0.12567  1.0000
  C   C260      1.0  0.27261  0.49569  0.19645  1.0000
  C  Sn3       1.0  0.26868  0.47667  0.43655  1.0000
  C  Sn4       1.0  0.24148  0.47938  0.60853  1.0000
  C   C261      1.0  0.21888  0.50104  0.53579  1.0000
  C   C262      1.0  0.22305  0.51995  0.29511  1.0000
  H   H306      1.0  0.25265  0.53192  0.93937  1.0000
  O  Te3       1.0  0.29162  0.45523  0.50426  1.0000
  O  Te4       1.0  0.23697  0.46065  0.84961  1.0000
  H   H307      1.0  0.20544  0.53666  0.24027  1.0000
  Mg  Mg2       1.0  0.27486  0.43492  0.85405  1.0000
  C   C263      1.0  0.98123  0.93335  0.86779  1.0000
  C   C264      1.0  0.00077  0.96010  0.87018  1.0000
  C  Sn5       1.0  0.02550  0.96319  0.67558  1.0000
  C  Sn6       1.0  0.03070  0.93902  0.47508  1.0000
  C   C265      1.0  0.01100  0.91236  0.47429  1.0000
  C   C266      1.0  0.98633  0.90951  0.67003  1.0000
  H   H308      1.0  0.96258  0.93113  0.01912  1.0000
  O  Te5       1.0  0.04481  0.99006  0.68098  1.0000
  O  Te6       1.0  0.05524  0.94151  0.27813  1.0000
  H   H309      1.0  0.97119  0.88880  0.66800  1.0000
  Mg  Mg3       1.0  0.07517  0.98262  0.36975  1.0000
  C   C267      1.0  0.26396  0.97205  0.72040  1.0000
  C   C268      1.0  0.27750  0.98750  0.95346  1.0000
  C  Sn7       1.0  0.23590  0.01168  0.08845  1.0000
  C  Sn8       1.0  0.20567  0.02054  0.98779  1.0000
  C   C269      1.0  0.19231  0.00493  0.75460  1.0000
  C   C270      1.0  0.23458  0.98075  0.62106  1.0000
  H   H310      1.0  0.27625  0.95334  0.61715  1.0000
  O  Te7       1.0  0.24978  0.02687  0.32096  1.0000
  O  Te8       1.0  0.18994  0.04462  0.11880  1.0000
  H   H311      1.0  0.22408  0.96879  0.44072  1.0000
  Mg  Mg4       1.0  0.21853  0.05828  0.42828  1.0000
  C   C271      1.0  0.02449  0.76577  0.96569  1.0000
  C   C272      1.0  0.00928  0.77826  0.19969  1.0000
  C  Sn9       1.0  0.98562  0.76081  0.33777  1.0000
  C  Sn10      1.0  0.97754  0.73028  0.23933  1.0000
  C   C273      1.0  0.99336  0.71797  0.00518  1.0000
  C   C274      1.0  0.01654  0.73565  0.86852  1.0000
  H   H312      1.0  0.04279  0.77943  0.86004  1.0000
  O  Te9       1.0  0.97020  0.77367  0.57118  1.0000
  O  Te10      1.0  0.95399  0.71233  0.37345  1.0000
  H   H313      1.0  0.02868  0.72595  0.68747  1.0000
  Mg  Mg5       1.0  0.93975  0.74008  0.68301  1.0000
  C   C275      1.0  0.53551  0.93978  0.23007  1.0000
  C   C276      1.0  0.50671  0.92834  0.33421  1.0000
  C  Sn11      1.0  0.48040  0.92729  0.15817  1.0000
  C  Sn12      1.0  0.48259  0.93793  0.87266  1.0000
  C   C277      1.0  0.51151  0.94931  0.77045  1.0000
  C   C278      1.0  0.53769  0.95026  0.94846  1.0000
  H   H314      1.0  0.55577  0.94050  0.36774  1.0000
  O  Te11      1.0  0.45180  0.91580  0.26566  1.0000
  O  Te12      1.0  0.45667  0.93713  0.69209  1.0000
  H   H315      1.0  0.55999  0.95910  0.86772  1.0000
  Mg  Mg6       1.0  0.42275  0.91944  0.93698  1.0000
  C   C279      1.0  0.97306  0.26856  0.16497  1.0000
  C   C280      1.0  0.99563  0.27354  0.95622  1.0000
  C  Sn13      1.0  0.02176  0.25456  0.94535  1.0000
  C  Sn14      1.0  0.02528  0.23016  0.14746  1.0000
  C   C281      1.0  0.00211  0.22538  0.35535  1.0000
  C   C282      1.0  0.97607  0.24451  0.36434  1.0000
  H   H316      1.0  0.95289  0.28335  0.17185  1.0000
  O  Te13      1.0  0.04454  0.25985  0.73544  1.0000
  O  Te14      1.0  0.05115  0.21084  0.14141  1.0000
  H   H317      1.0  0.95824  0.24065  0.52588  1.0000
  Mg  Mg7       1.0  0.07553  0.22731  0.81464  1.0000
  C   C283      1.0  0.93242  0.51872  0.12329  1.0000
  C   C284      1.0  0.95847  0.49959  0.12611  1.0000
  C  Sn15      1.0  0.96025  0.47495  0.93229  1.0000
  C  Sn16      1.0  0.93592  0.46941  0.73214  1.0000
  C   C285      1.0  0.90997  0.48870  0.73092  1.0000
  C   C286      1.0  0.90797  0.51329  0.92588  1.0000
  H   H318      1.0  0.93088  0.53776  0.27402  1.0000
  O  Te15      1.0  0.98643  0.45606  0.93810  1.0000
  O  Te16      1.0  0.93756  0.44495  0.53597  1.0000
  H   H319      1.0  0.88781  0.52811  0.92352  1.0000
  Mg  Mg8       1.0  0.97794  0.42563  0.62792  1.0000
  C   C287      1.0  0.74981  0.02227  0.60914  1.0000
  C   C288      1.0  0.77329  0.00167  0.68387  1.0000
  C  Sn17      1.0  0.79625  0.98283  0.92562  1.0000
  C  Sn18      1.0  0.76922  0.98468  0.09523  1.0000
  C   C289      1.0  0.71948  0.00535  0.01854  1.0000
  C   C290      1.0  0.72270  0.02412  0.77625  1.0000
  H   H320      1.0  0.75264  0.03677  0.42159  1.0000
  O  Te17      1.0  0.81994  0.96239  0.99729  1.0000
  O  Te18      1.0  0.76520  0.96611  0.33789  1.0000
  H   H321      1.0  0.70451  0.04005  0.71833  1.0000
  Mg  Mg9       1.0  0.80408  0.94187  0.34787  1.0000
  C   C291      1.0  0.93792  0.46550  0.76949  1.0000
  C   C292      1.0  0.92400  0.49303  0.67997  1.0000
  C  Sn19      1.0  0.92412  0.51930  0.85700  1.0000
  C  Sn20      1.0  0.93891  0.51792  0.12852  1.0000
  C   C293      1.0  0.95280  0.49028  0.21602  1.0000
  C   C294      1.0  0.95254  0.46412  0.03722  1.0000
  H   H322      1.0  0.93773  0.44527  0.63111  1.0000
  O  Te19      1.0  0.91009  0.54661  0.76428  1.0000
  O  Te20      1.0  0.93938  0.54384  0.30966  1.0000
  H   H323      1.0  0.96334  0.44282  0.10651  1.0000
  Mg  Mg10      1.0  0.91718  0.57573  0.08772  1.0000
  C   C295      1.0  0.73517  0.52745  0.53774  1.0000
  C   C296      1.0  0.72424  0.51568  0.27780  1.0000
  C  Sn21      1.0  0.73935  0.49098  0.14511  1.0000
  C  Sn22      1.0  0.76589  0.47785  0.27563  1.0000
  C   C297      1.0  0.77663  0.48978  0.53579  1.0000
  C   C298      1.0  0.76133  0.51451  0.66667  1.0000
  H   H324      1.0  0.72332  0.54657  0.63910  1.0000
  O  Te21      1.0  0.72769  0.47953  0.88539  1.0000
  O  Te22      1.0  0.78144  0.45314  0.14770  1.0000
  H   H325      1.0  0.76979  0.52360  0.86801  1.0000
  Mg  Mg11      1.0  0.75682  0.44561  0.79423  1.0000
  C   C299      1.0  0.52369  0.76504  0.78420  1.0000
  C   C300      1.0  0.51168  0.77550  0.52583  1.0000
  C  Sn23      1.0  0.48803  0.75824  0.38752  1.0000
  C  Sn24      1.0  0.47622  0.72999  0.51072  1.0000
  C   C301      1.0  0.48837  0.71973  0.76937  1.0000
  C   C302      1.0  0.51205  0.73718  0.90592  1.0000
  H   H326      1.0  0.54200  0.77854  0.88995  1.0000
  O  Te23      1.0  0.47630  0.76903  0.12945  1.0000
  O  Te24      1.0  0.45257  0.71228  0.37707  1.0000
  H   H327      1.0  0.52177  0.72906  0.10605  1.0000
  Mg  Mg12      1.0  0.44416  0.73669  0.02862  1.0000
  C   C303      1.0  0.55911  0.03597  0.25502  1.0000
  C   C304      1.0  0.57411  0.00892  0.16728  1.0000
  C  Sn25      1.0  0.60132  0.98290  0.34677  1.0000
  C  Sn26      1.0  0.58686  0.98405  0.61899  1.0000
  C   C305      1.0  0.54553  0.01121  0.70470  1.0000
  C   C306      1.0  0.54484  0.03712  0.52343  1.0000
  H   H328      1.0  0.55856  0.05601  0.11473  1.0000
  O  Te25      1.0  0.61641  0.95606  0.25581  1.0000
  O  Te26      1.0  0.58735  0.95837  0.80259  1.0000
  H   H329      1.0  0.53321  0.05806  0.59135  1.0000
  Mg  Mg13      1.0  0.61082  0.92711  0.58236  1.0000
  C   C307      1.0  0.51665  0.06724  0.86467  1.0000
  C   C308      1.0  0.50111  0.03824  0.89513  1.0000
  C  Sn27      1.0  0.47749  0.03432  0.09546  1.0000
  C  Sn28      1.0  0.46886  0.05997  0.26814  1.0000
  C   C309      1.0  0.48454  0.08889  0.23588  1.0000
  C   C310      1.0  0.50860  0.09253  0.03482  1.0000
  H   H330      1.0  0.53525  0.07007  0.70900  1.0000
  O  Te27      1.0  0.46221  0.00519  0.12320  1.0000
  O  Te28      1.0  0.44488  0.05671  0.46996  1.0000
  H   H331      1.0  0.52062  0.11499  0.01115  1.0000
  Mg  Mg14      1.0  0.43104  0.01238  0.42827  1.0000
  C   C311      1.0  0.46819  0.53938  0.07276  1.0000
  C   C312      1.0  0.48972  0.53227  0.28490  1.0000
  C  Sn29      1.0  0.51255  0.55444  0.36747  1.0000
  C  Sn30      1.0  0.51377  0.58427  0.23487  1.0000
  C   C313      1.0  0.49210  0.59117  0.02300  1.0000
  C   C314      1.0  0.46892  0.56882  0.94194  1.0000
  H   H332      1.0  0.45058  0.52209  0.01013  1.0000
  O  Te29      1.0  0.53389  0.54693  0.57971  1.0000
  O  Te30      1.0  0.53633  0.60686  0.31338  1.0000
  H   H333      1.0  0.45223  0.57435  0.77781  1.0000
  Mg  Mg15      1.0  0.56030  0.58555  0.61320  1.0000
  C   C315      1.0  0.48121  0.24961  0.86492  1.0000
  C   C316      1.0  0.50606  0.27105  0.82154  1.0000
  C  Sn31      1.0  0.52574  0.26821  0.58505  1.0000
  C  Sn32      1.0  0.52039  0.24343  0.38869  1.0000
  C   C317      1.0  0.49546  0.22212  0.43389  1.0000
  C   C318      1.0  0.47591  0.22517  0.67129  1.0000
  H   H334      1.0  0.46653  0.25196  0.04851  1.0000
  O  Te31      1.0  0.55046  0.28983  0.54499  1.0000
  O  Te32      1.0  0.53970  0.24005  0.15049  1.0000
  H   H335      1.0  0.45667  0.20858  0.70472  1.0000
  Mg  Mg16      1.0  0.57033  0.27539  0.18820  1.0000
  C   C319      1.0  0.56019  0.53734  0.97825  1.0000
  C   C320      1.0  0.57165  0.50902  0.08179  1.0000
  C  Sn33      1.0  0.57175  0.48270  0.90581  1.0000
  C  Sn34      1.0  0.56107  0.48480  0.62095  1.0000
  C   C321      1.0  0.55012  0.51323  0.51933  1.0000
  C   C322      1.0  0.54966  0.53944  0.69729  1.0000
  H   H336      1.0  0.56031  0.55760  0.11587  1.0000
  O  Te33      1.0  0.58327  0.45458  0.01270  1.0000
  O  Te34      1.0  0.56137  0.45884  0.44045  1.0000
  H   H337      1.0  0.54116  0.56135  0.61701  1.0000
  Mg  Mg17      1.0  0.57860  0.42572  0.68437  1.0000
  C   C323      1.0  0.96879  0.06026  0.51127  1.0000
  C   C324      1.0  0.99694  0.07483  0.42473  1.0000
  C  Sn35      1.0  0.02305  0.07488  0.60312  1.0000
  C  Sn36      1.0  0.02088  0.06006  0.87300  1.0000
  C   C325      1.0  0.99262  0.04553  0.95752  1.0000
  C   C326      1.0  0.96663  0.04563  0.77737  1.0000
  H   H338      1.0  0.94869  0.06032  0.37185  1.0000
  O  Te35      1.0  0.05099  0.08955  0.51338  1.0000
  O  Te36      1.0  0.04707  0.05974  0.05545  1.0000
  H   H339      1.0  0.94485  0.03433  0.84436  1.0000
  Mg  Mg18      1.0  0.07959  0.08289  0.83763  1.0000
