data_image0
_chemical_formula_structural       H272C212N16SnCSn2CSnTe4Mg2SnCSn2CSnTe4Mg2SnCSn2CSnTe4Mg2SnCSn2CSnTe4Mg2SnCSn2CSnTe4Mg2SnCSn2CSnTe4Mg2SnCSn2CSnTe4Mg2SnCSn2CSnTe4Mg2SnCSn2CSnTe4Mg2SnCSn2CSnTe4Mg2SnCSn2CSnTe4Mg2SnCSn2CSnTe4Mg2SnCSn2CSnTe4Mg2SnCSn2CSnTe4Mg2SnCSn2CSnTe4Mg2SnCSn2CSnTe4Mg2SnCSn2CSnTe4Mg2SnCSn2CSnTe4Mg2SnCSn2CSnTe4Mg2SnCSn2CSnTe4Mg2SnCSn2CSnTe4Mg2SnCSn2CSnTe4Mg2SnCSn2CSnTe4Mg2SnCSn2CSnTe4Mg2SnCSn2CSnTe4Mg2SnCSn2CSnTe4Mg2SnCSn2CSnTe4Mg2SnCSn2CSnTe4Mg2SnCSn2CSnTe4Mg2SnCSn2CSnTe4Mg2SnCSn2CSnTe4Mg2SnCSn2CSnTe4Mg2SnCSn2CSnTe4Mg2SnCSn2CSnTe4Mg2SnCSn2CSnTe4Mg2SnCSn2CSnTe4Mg2
_chemical_formula_sum              "H272 C284 N16 Sn144 Te144 Mg72"
_cell_length_a       42.6861
_cell_length_b       42.7439
_cell_length_c       4.69672
_cell_angle_alpha    90.015
_cell_angle_beta     89.7657
_cell_angle_gamma    91.5092

_symmetry_space_group_name_H-M    'P1'
_space_group_IT_number       1

loop_
  _space_group_symop_operation_xyz
  'x, y, z'

loop_
  _atom_site_type_symbol
  _atom_site_label
  _atom_site_symmetry_multiplicity
  _atom_site_fract_x
  _atom_site_fract_y
  _atom_site_fract_z
  _atom_site_occupancy
  H   H1        1.0  0.63068  0.46510  0.09369  1.0000
  H   H2        1.0  0.87327  0.04058  0.60343  1.0000
  H   H3        1.0  0.53847  0.13183  0.33224  1.0000
  H   H4        1.0  0.95243  0.37248  0.86278  1.0000
  H   H5        1.0  0.37151  0.03712  0.13765  1.0000
  H   H6        1.0  0.12940  0.46166  0.66445  1.0000
  H   H7        1.0  0.46473  0.36631  0.90803  1.0000
  H   H8        1.0  0.04805  0.12743  0.40247  1.0000
  H   H9        1.0  0.13033  0.95965  0.60217  1.0000
  H   H10       1.0  0.36912  0.53331  0.09459  1.0000
  H   H11       1.0  0.03945  0.63222  0.84950  1.0000
  H   H12       1.0  0.46040  0.86886  0.35782  1.0000
  H   H13       1.0  0.86822  0.53943  0.65831  1.0000
  H   H14       1.0  0.63066  0.96418  0.14785  1.0000
  H   H15       1.0  0.95888  0.86953  0.38774  1.0000
  H   H16       1.0  0.53754  0.63099  0.89485  1.0000
  H   H17       1.0  0.60695  0.55667  0.37167  1.0000
  H   H18       1.0  0.89165  0.94747  0.87424  1.0000
  H   H19       1.0  0.44720  0.10461  0.63454  1.0000
  H   H20       1.0  0.04678  0.39093  0.12780  1.0000
  H   H21       1.0  0.39130  0.94393  0.87586  1.0000
  H   H22       1.0  0.10678  0.55304  0.37631  1.0000
  H   H23       1.0  0.55569  0.39586  0.61608  1.0000
  H   H24       1.0  0.95376  0.11066  0.12788  1.0000
  H   H25       1.0  0.10833  0.05157  0.88527  1.0000
  H   H26       1.0  0.39285  0.44211  0.37917  1.0000
  H   H27       1.0  0.94749  0.60501  0.13329  1.0000
  H   H28       1.0  0.55364  0.89349  0.61770  1.0000
  H   H29       1.0  0.89089  0.44776  0.37417  1.0000
  H   H30       1.0  0.60690  0.05551  0.86593  1.0000
  H   H31       1.0  0.05248  0.89377  0.12636  1.0000
  H   H32       1.0  0.44564  0.60383  0.61709  1.0000
  H   H33       1.0  0.68224  0.53976  0.13613  1.0000
  H   H34       1.0  0.81990  0.96882  0.64479  1.0000
  H   H35       1.0  0.46614  0.18069  0.38525  1.0000
  H   H36       1.0  0.02469  0.29011  0.52428  1.0000
  H   H37       1.0  0.31940  0.96338  0.10507  1.0000
  H   H38       1.0  0.18215  0.53443  0.61303  1.0000
  H   H39       1.0  0.53934  0.31903  0.85960  1.0000
  H   H40       1.0  0.97811  0.21141  0.74065  1.0000
  H   H41       1.0  0.18181  0.03253  0.64965  1.0000
  H   H42       1.0  0.31670  0.45962  0.14466  1.0000
  H   H43       1.0  0.96625  0.67916  0.90188  1.0000
  H   H44       1.0  0.53354  0.82040  0.39346  1.0000
  H   H45       1.0  0.81643  0.46587  0.61145  1.0000
  H   H46       1.0  0.68148  0.03777  0.09570  1.0000
  H   H47       1.0  0.03253  0.82202  0.34924  1.0000
  H   H48       1.0  0.46443  0.67883  0.84760  1.0000
  H   H49       1.0  0.66594  0.56992  0.91042  1.0000
  H   H50       1.0  0.83180  0.93666  0.40994  1.0000
  H   H51       1.0  0.43555  0.16473  0.16109  1.0000
  H   H52       1.0  0.05092  0.33156  0.68177  1.0000
  H   H53       1.0  0.33197  0.93213  0.33837  1.0000
  H   H54       1.0  0.16613  0.56525  0.83734  1.0000
  H   H55       1.0  0.56918  0.33707  0.08084  1.0000
  H   H56       1.0  0.95108  0.17082  0.57913  1.0000
  H   H57       1.0  0.16824  0.06370  0.41832  1.0000
  H   H58       1.0  0.33370  0.42941  0.92168  1.0000
  H   H59       1.0  0.93511  0.66352  0.67273  1.0000
  H   H60       1.0  0.56545  0.83505  0.15655  1.0000
  H   H61       1.0  0.83132  0.43536  0.84116  1.0000
  H   H62       1.0  0.66603  0.06839  0.32318  1.0000
  H   H63       1.0  0.06453  0.83539  0.58730  1.0000
  H   H64       1.0  0.43351  0.66223  0.07708  1.0000
  H   H65       1.0  0.69304  0.45578  0.62129  1.0000
  H   H66       1.0  0.82023  0.05737  0.20703  1.0000
  H   H67       1.0  0.55030  0.19429  0.86157  1.0000
  H   H68       1.0  0.93477  0.31395  0.42205  1.0000
  H   H69       1.0  0.31750  0.05184  0.53840  1.0000
  H   H70       1.0  0.19115  0.45032  0.13128  1.0000
  H   H71       1.0  0.45494  0.30374  0.37791  1.0000
  H   H72       1.0  0.06719  0.18594  0.84496  1.0000
  H   H73       1.0  0.19192  0.94859  0.13357  1.0000
  H   H74       1.0  0.30687  0.54344  0.62653  1.0000
  H   H75       1.0  0.05013  0.69428  0.38369  1.0000
  H   H76       1.0  0.44499  0.81483  0.96068  1.0000
  H   H77       1.0  0.80623  0.54990  0.12959  1.0000
  H   H78       1.0  0.69284  0.95447  0.61364  1.0000
  H   H79       1.0  0.94390  0.81544  0.78404  1.0000
  H   H80       1.0  0.54828  0.69330  0.36144  1.0000
  H   H81       1.0  0.68672  0.45535  0.02844  1.0000
  H   H82       1.0  0.82740  0.06311  0.54922  1.0000
  H   H83       1.0  0.54942  0.18844  0.26891  1.0000
  H   H84       1.0  0.93547  0.31884  0.82185  1.0000
  H   H85       1.0  0.29077  0.05201  0.98812  1.0000
  H   H86       1.0  0.18535  0.45091  0.72547  1.0000
  H   H87       1.0  0.45558  0.30977  0.97165  1.0000
  H   H88       1.0  0.06635  0.18120  0.44367  1.0000
  H   H89       1.0  0.20361  0.91795  0.72948  1.0000
  H   H90       1.0  0.31300  0.54357  0.03315  1.0000
  H   H91       1.0  0.04925  0.68900  0.78906  1.0000
  H   H92       1.0  0.43886  0.82150  0.30396  1.0000
  H   H93       1.0  0.81227  0.54991  0.72235  1.0000
  H   H94       1.0  0.68715  0.95451  0.20732  1.0000
  H   H95       1.0  0.93779  0.82175  0.44167  1.0000
  H   H96       1.0  0.54791  0.68775  0.95506  1.0000
  H   H97       1.0  0.66478  0.42093  0.12240  1.0000
  H   H98       1.0  0.81257  0.09375  0.77018  1.0000
  H   H99       1.0  0.58344  0.16726  0.35325  1.0000
  H   H100      1.0  0.90255  0.34128  0.91635  1.0000
  H   H101      1.0  0.32480  0.05830  0.19382  1.0000
  H   H102      1.0  0.16290  0.41665  0.63785  1.0000
  H   H103      1.0  0.42075  0.32957  0.88510  1.0000
  H   H104      1.0  0.09844  0.15748  0.35178  1.0000
  H   H105      1.0  0.18631  0.94915  0.54023  1.0000
  H   H106      1.0  0.33531  0.57782  0.12388  1.0000
  H   H107      1.0  0.08393  0.66881  0.87282  1.0000
  H   H108      1.0  0.40821  0.80516  0.52641  1.0000
  H   H109      1.0  0.83461  0.58419  0.63053  1.0000
  H   H110      1.0  0.66530  0.91989  0.11883  1.0000
  H   H111      1.0  0.90751  0.80469  0.22145  1.0000
  H   H112      1.0  0.58233  0.66721  0.86628  1.0000
  H   H113      1.0  0.70475  0.42468  0.21962  1.0000
  H   H114      1.0  0.79327  0.05642  0.75578  1.0000
  H   H115      1.0  0.58109  0.20703  0.45555  1.0000
  H   H116      1.0  0.90355  0.30159  0.02025  1.0000
  H   H117      1.0  0.31042  0.08913  0.97358  1.0000
  H   H118      1.0  0.20279  0.41983  0.53397  1.0000
  H   H119      1.0  0.42472  0.28991  0.78466  1.0000
  H   H120      1.0  0.09900  0.19718  0.24616  1.0000
  H   H121      1.0  0.16373  0.91490  0.62781  1.0000
  H   H122      1.0  0.29536  0.57452  0.22507  1.0000
  H   H123      1.0  0.08025  0.70835  0.97818  1.0000
  H   H124      1.0  0.44562  0.78795  0.51092  1.0000
  H   H125      1.0  0.79467  0.58086  0.53162  1.0000
  H   H126      1.0  0.70514  0.92380  0.01461  1.0000
  H   H127      1.0  0.94533  0.78837  0.23410  1.0000
  H   H128      1.0  0.57897  0.70680  0.76279  1.0000
  H   H129      1.0  0.66239  0.40619  0.66970  1.0000
  H   H130      1.0  0.85490  0.10329  0.12107  1.0000
  H   H131      1.0  0.59927  0.16513  0.89979  1.0000
  H   H132      1.0  0.88940  0.34810  0.45184  1.0000
  H   H133      1.0  0.35114  0.09869  0.61026  1.0000
  H   H134      1.0  0.15913  0.40148  0.09298  1.0000
  H   H135      1.0  0.40518  0.33159  0.34095  1.0000
  H   H136      1.0  0.11171  0.15091  0.81153  1.0000
  H   H137      1.0  0.16041  0.89948  0.17283  1.0000
  H   H138      1.0  0.33819  0.59274  0.67082  1.0000
  H   H139      1.0  0.09946  0.66574  0.41615  1.0000
  H   H140      1.0  0.39846  0.84630  0.88301  1.0000
  H   H141      1.0  0.83758  0.59907  0.08204  1.0000
  H   H142      1.0  0.66212  0.90484  0.57168  1.0000
  H   H143      1.0  0.89710  0.84630  0.86579  1.0000
  H   H144      1.0  0.59754  0.66433  0.32008  1.0000
  H   H145      1.0  0.63173  0.42108  0.45949  1.0000
  H   H146      1.0  0.87972  0.08136  0.89661  1.0000
  H   H147      1.0  0.58340  0.13423  0.68819  1.0000
  H   H148      1.0  0.90915  0.37723  0.24473  1.0000
  H   H149      1.0  0.37672  0.07780  0.83347  1.0000
  H   H150      1.0  0.12892  0.41762  0.30381  1.0000
  H   H151      1.0  0.42037  0.36302  0.55058  1.0000
  H   H152      1.0  0.09162  0.12202  0.01877  1.0000
  H   H153      1.0  0.13000  0.91529  0.96560  1.0000
  H   H154      1.0  0.36861  0.57727  0.45863  1.0000
  H   H155      1.0  0.08370  0.63451  0.20762  1.0000
  H   H156      1.0  0.41977  0.87268  0.65821  1.0000
  H   H157      1.0  0.86792  0.58375  0.29365  1.0000
  H   H158      1.0  0.63156  0.91997  0.78428  1.0000
  H   H159      1.0  0.91782  0.87263  0.09396  1.0000
  H   H160      1.0  0.58163  0.63317  0.53006  1.0000
  H   H161      1.0  0.63863  0.43571  0.81006  1.0000
  H   H162      1.0  0.87596  0.07196  0.26291  1.0000
  H   H163      1.0  0.56931  0.14037  0.04203  1.0000
  H   H164      1.0  0.92185  0.36890  0.59674  1.0000
  H   H165      1.0  0.37284  0.06771  0.46915  1.0000
  H   H166      1.0  0.13642  0.43162  0.95105  1.0000
  H   H167      1.0  0.43452  0.35690  0.19678  1.0000
  H   H168      1.0  0.07875  0.13077  0.66852  1.0000
  H   H169      1.0  0.13733  0.92929  0.31763  1.0000
  H   H170      1.0  0.36144  0.56287  0.81027  1.0000
  H   H171      1.0  0.06973  0.64100  0.56129  1.0000
  H   H172      1.0  0.42958  0.86943  0.02297  1.0000
  H   H173      1.0  0.86095  0.56918  0.94280  1.0000
  H   H174      1.0  0.63850  0.93445  0.43246  1.0000
  H   H175      1.0  0.92804  0.87001  0.72878  1.0000
  H   H176      1.0  0.56757  0.63987  0.17825  1.0000
  H   H177      1.0  0.65826  0.58224  0.26984  1.0000
  H   H178      1.0  0.84024  0.92442  0.76983  1.0000
  H   H179      1.0  0.42283  0.15553  0.52360  1.0000
  H   H180      1.0  0.06400  0.33505  0.03496  1.0000
  H   H181      1.0  0.34031  0.91969  0.97728  1.0000
  H   H182      1.0  0.15893  0.57755  0.47906  1.0000
  H   H183      1.0  0.58160  0.34565  0.72039  1.0000
  H   H184      1.0  0.93793  0.16743  0.22562  1.0000
  H   H185      1.0  0.15975  0.07612  0.78000  1.0000
  H   H186      1.0  0.34059  0.41691  0.27996  1.0000
  H   H187      1.0  0.92267  0.65494  0.03321  1.0000
  H   H188      1.0  0.57766  0.84381  0.51591  1.0000
  H   H189      1.0  0.83971  0.42289  0.47983  1.0000
  H   H190      1.0  0.65868  0.08091  0.96447  1.0000
  H   H191      1.0  0.07662  0.84449  0.22691  1.0000
  H   H192      1.0  0.42084  0.65403  0.71760  1.0000
  H   H193      1.0  0.69343  0.58130  0.46654  1.0000
  H   H194      1.0  0.80494  0.92507  0.96691  1.0000
  H   H195      1.0  0.42360  0.19064  0.72122  1.0000
  H   H196      1.0  0.05532  0.30120  0.23603  1.0000
  H   H197      1.0  0.30512  0.91991  0.78090  1.0000
  H   H198      1.0  0.19401  0.57592  0.27883  1.0000
  H   H199      1.0  0.58102  0.31057  0.52147  1.0000
  H   H200      1.0  0.94724  0.20111  0.02510  1.0000
  H   H201      1.0  0.19487  0.07574  0.97676  1.0000
  H   H202      1.0  0.30558  0.41861  0.48099  1.0000
  H   H203      1.0  0.92336  0.69019  0.23028  1.0000
  H   H204      1.0  0.57702  0.80859  0.71271  1.0000
  H   H205      1.0  0.80457  0.42327  0.28312  1.0000
  H   H206      1.0  0.69375  0.07963  0.76407  1.0000
  H   H207      1.0  0.07676  0.80939  0.02865  1.0000
  H   H208      1.0  0.42217  0.68922  0.51979  1.0000
  H   H209      1.0  0.66814  0.61317  0.51686  1.0000
  H   H210      1.0  0.83029  0.89330  0.01420  1.0000
  H   H211      1.0  0.39177  0.16362  0.77112  1.0000
  H   H212      1.0  0.09266  0.32029  0.28083  1.0000
  H   H213      1.0  0.33099  0.88858  0.73121  1.0000
  H   H214      1.0  0.16940  0.60835  0.23171  1.0000
  H   H215      1.0  0.61268  0.33781  0.47208  1.0000
  H   H216      1.0  0.90955  0.18284  0.98093  1.0000
  H   H217      1.0  0.16915  0.10726  0.02545  1.0000
  H   H218      1.0  0.33018  0.38616  0.52836  1.0000
  H   H219      1.0  0.89164  0.66310  0.28108  1.0000
  H   H220      1.0  0.60880  0.83566  0.76000  1.0000
  H   H221      1.0  0.83031  0.39177  0.23358  1.0000
  H   H222      1.0  0.66873  0.11169  0.71567  1.0000
  H   H223      1.0  0.10798  0.83708  0.98088  1.0000
  H   H224      1.0  0.39004  0.66260  0.47040  1.0000
  H   H225      1.0  0.60887  0.57303  0.97302  1.0000
  H   H226      1.0  0.88851  0.93215  0.48101  1.0000
  H   H227      1.0  0.43141  0.10908  0.25065  1.0000
  H   H228      1.0  0.06472  0.38837  0.70392  1.0000
  H   H229      1.0  0.38874  0.92893  0.26434  1.0000
  H   H230      1.0  0.10894  0.56955  0.78302  1.0000
  H   H231      1.0  0.57215  0.39374  0.01061  1.0000
  H   H232      1.0  0.93609  0.11428  0.55479  1.0000
  H   H233      1.0  0.11275  0.06747  0.50879  1.0000
  H   H234      1.0  0.39115  0.42563  0.96978  1.0000
  H   H235      1.0  0.93122  0.60657  0.73892  1.0000
  H   H236      1.0  0.56937  0.89203  0.22487  1.0000
  H   H237      1.0  0.88703  0.43183  0.75471  1.0000
  H   H238      1.0  0.60879  0.07185  0.26842  1.0000
  H   H239      1.0  0.06804  0.89194  0.50974  1.0000
  H   H240      1.0  0.42945  0.60522  0.01399  1.0000
  H   H241      1.0  0.60483  0.58969  0.63267  1.0000
  H   H242      1.0  0.89306  0.91545  0.14132  1.0000
  H   H243      1.0  0.41655  0.10114  0.90924  1.0000
  H   H244      1.0  0.08318  0.38657  0.36718  1.0000
  H   H245      1.0  0.39368  0.91256  0.60394  1.0000
  H   H246      1.0  0.10581  0.58675  0.12275  1.0000
  H   H247      1.0  0.58827  0.39982  0.35098  1.0000
  H   H248      1.0  0.91749  0.11651  0.89080  1.0000
  H   H249      1.0  0.10531  0.08179  0.16650  1.0000
  H   H250      1.0  0.39377  0.40798  0.63156  1.0000
  H   H251      1.0  0.91473  0.60138  0.39867  1.0000
  H   H252      1.0  0.58603  0.89733  0.88432  1.0000
  H   H253      1.0  0.89410  0.41752  0.09800  1.0000
  H   H254      1.0  0.60532  0.08895  0.60799  1.0000
  H   H255      1.0  0.08388  0.89850  0.85017  1.0000
  H   H256      1.0  0.41278  0.60035  0.35540  1.0000
  H   H257      1.0  0.62770  0.60950  0.89387  1.0000
  H   H258      1.0  0.86905  0.89610  0.39868  1.0000
  H   H259      1.0  0.39496  0.12448  0.14855  1.0000
  H   H260      1.0  0.09708  0.36377  0.65221  1.0000
  H   H261      1.0  0.37037  0.89233  0.34814  1.0000
  H   H262      1.0  0.12895  0.60555  0.85614  1.0000
  H   H263      1.0  0.60876  0.37758  0.09555  1.0000
  H   H264      1.0  0.90425  0.13956  0.60505  1.0000
  H   H265      1.0  0.12970  0.10390  0.40225  1.0000
  H   H266      1.0  0.37116  0.38946  0.90346  1.0000
  H   H267      1.0  0.89494  0.62372  0.65848  1.0000
  H   H268      1.0  0.60562  0.87476  0.14195  1.0000
  H   H269      1.0  0.87009  0.39533  0.86002  1.0000
  H   H270      1.0  0.62814  0.10818  0.34124  1.0000
  H   H271      1.0  0.10447  0.87568  0.59886  1.0000
  H   H272      1.0  0.39323  0.62261  0.09527  1.0000
  C   C1        1.0  0.63388  0.48492  0.23657  1.0000
  C   C2        1.0  0.86892  0.02080  0.74542  1.0000
  C   C3        1.0  0.51902  0.13430  0.47998  1.0000
  C   C4        1.0  0.97192  0.36816  0.00440  1.0000
  C   C5        1.0  0.36744  0.01706  0.99840  1.0000
  C   C6        1.0  0.13280  0.48122  0.51871  1.0000
  C   C7        1.0  0.48441  0.36434  0.76216  1.0000
  C   C8        1.0  0.02881  0.13219  0.25926  1.0000
  C   C9        1.0  0.13374  0.97931  0.74652  1.0000
  C   C10       1.0  0.36580  0.51360  0.23874  1.0000
  C   C11       1.0  0.01977  0.63443  0.99514  1.0000
  C   C12       1.0  0.48046  0.86591  0.49682  1.0000
  C   C13       1.0  0.86491  0.51976  0.51394  1.0000
  C   C14       1.0  0.63384  0.98387  0.00331  1.0000
  C   C15       1.0  0.97901  0.86656  0.24791  1.0000
  C   C16       1.0  0.51787  0.63335  0.75084  1.0000
  C   C17       1.0  0.65665  0.48307  0.44675  1.0000
  C   C18       1.0  0.84712  0.02418  0.96363  1.0000
  C   C19       1.0  0.52175  0.15724  0.68967  1.0000
  C   C20       1.0  0.96704  0.34694  0.22507  1.0000
  C   C21       1.0  0.34556  0.01981  0.78130  1.0000
  C   C22       1.0  0.15562  0.47880  0.30779  1.0000
  C   C23       1.0  0.48253  0.34141  0.55204  1.0000
  C   C24       1.0  0.03428  0.15344  0.03975  1.0000
  C   C25       1.0  0.15625  0.97679  0.95820  1.0000
  C   C26       1.0  0.34290  0.51567  0.44948  1.0000
  C   C27       1.0  0.02204  0.65717  0.20665  1.0000
  C   C28       1.0  0.47758  0.84401  0.71533  1.0000
  C   C29       1.0  0.84221  0.52204  0.30347  1.0000
  C   C30       1.0  0.65662  0.98186  0.79172  1.0000
  C   C31       1.0  0.97625  0.84473  0.02890  1.0000
  C   C32       1.0  0.52019  0.65614  0.53951  1.0000
  C   C33       1.0  0.66231  0.50860  0.64109  1.0000
  C   C34       1.0  0.83925  0.99853  0.15048  1.0000
  C   C35       1.0  0.49654  0.16229  0.88734  1.0000
  C   C36       1.0  0.99256  0.33940  0.40530  1.0000
  C   C37       1.0  0.33828  0.99390  0.59636  1.0000
  C   C38       1.0  0.16176  0.50405  0.11118  1.0000
  C   C39       1.0  0.50804  0.33716  0.35576  1.0000
  C   C40       1.0  0.00907  0.16152  0.85809  1.0000
  C   C41       1.0  0.16247  0.00217  0.15294  1.0000
  C   C42       1.0  0.33711  0.49029  0.64554  1.0000
  C   C43       1.0  0.99661  0.66183  0.40252  1.0000
  C   C44       1.0  0.50349  0.83791  0.89982  1.0000
  C   C45       1.0  0.83618  0.49665  0.10832  1.0000
  C   C46       1.0  0.66228  0.00727  0.59594  1.0000
  C   C47       1.0  0.00227  0.83869  0.84373  1.0000
  C   C48       1.0  0.49480  0.66081  0.34491  1.0000
  C   C49       1.0  0.64423  0.53644  0.59773  1.0000
  C   C50       1.0  0.85553  0.96962  0.10305  1.0000
  C   C51       1.0  0.46836  0.14318  0.85046  1.0000
  C   C52       1.0  0.02222  0.35499  0.35673  1.0000
  C   C53       1.0  0.35499  0.96534  0.64579  1.0000
  C   C54       1.0  0.14395  0.53215  0.15201  1.0000
  C   C55       1.0  0.53571  0.35705  0.39516  1.0000
  C   C56       1.0  0.97910  0.14648  0.90383  1.0000
  C   C57       1.0  0.14521  0.03051  0.10975  1.0000
  C   C58       1.0  0.35533  0.46247  0.60433  1.0000
  C   C59       1.0  0.96837  0.64285  0.35993  1.0000
  C   C60       1.0  0.53212  0.85615  0.84966  1.0000
  C   C61       1.0  0.85386  0.46858  0.15092  1.0000
  C   C62       1.0  0.64420  0.03515  0.63842  1.0000
  C   C63       1.0  0.03097  0.85671  0.89397  1.0000
  C   C64       1.0  0.46661  0.64173  0.38936  1.0000
  C   C65       1.0  0.62050  0.53567  0.39498  1.0000
  C   C66       1.0  0.87927  0.96920  0.89876  1.0000
  C   C67       1.0  0.46845  0.11906  0.65073  1.0000
  C   C68       1.0  0.02431  0.37871  0.15317  1.0000
  C   C69       1.0  0.37860  0.96543  0.84969  1.0000
  C   C70       1.0  0.12003  0.53184  0.35452  1.0000
  C   C71       1.0  0.53483  0.38092  0.59676  1.0000
  C   C72       1.0  0.97643  0.12253  0.10506  1.0000
  C   C73       1.0  0.12154  0.03032  0.90659  1.0000
  C   C74       1.0  0.37920  0.46306  0.40102  1.0000
  C   C75       1.0  0.96877  0.61923  0.15614  1.0000
  C   C76       1.0  0.53208  0.87971  0.64460  1.0000
  C   C77       1.0  0.87761  0.46897  0.35326  1.0000
  C   C78       1.0  0.62043  0.03450  0.84242  1.0000
  C   C79       1.0  0.03086  0.88012  0.10002  1.0000
  C   C80       1.0  0.46692  0.61810  0.59348  1.0000
  C   C81       1.0  0.61478  0.51093  0.20372  1.0000
  C   C82       1.0  0.88628  0.99363  0.70760  1.0000
  C   C83       1.0  0.49270  0.11407  0.45415  1.0000
  C   C84       1.0  0.00020  0.38555  0.96390  1.0000
  C   C85       1.0  0.38520  0.99017  0.03859  1.0000
  C   C86       1.0  0.11384  0.50738  0.54789  1.0000
  C   C87       1.0  0.51019  0.38517  0.79104  1.0000
  C   C88       1.0  0.00023  0.11515  0.29575  1.0000
  C   C89       1.0  0.11539  0.00587  0.71313  1.0000
  C   C90       1.0  0.38505  0.48764  0.20817  1.0000
  C   C91       1.0  0.99343  0.61440  0.96332  1.0000
  C   C92       1.0  0.50741  0.88500  0.45531  1.0000
  C   C93       1.0  0.88369  0.49349  0.54619  1.0000
  C   C94       1.0  0.61467  0.00986  0.03504  1.0000
  C   C95       1.0  0.00606  0.88543  0.28997  1.0000
  C   C96       1.0  0.49154  0.61326  0.78472  1.0000
  C   C97       1.0  0.69452  0.51933  0.05880  1.0000
  C   C98       1.0  0.80655  0.98826  0.56236  1.0000
  C   C99       1.0  0.48641  0.19412  0.30489  1.0000
  C   C100      1.0  0.00516  0.29465  0.66898  1.0000
  C   C101      1.0  0.30592  0.98288  0.18525  1.0000
  C   C102      1.0  0.19435  0.51409  0.69261  1.0000
  C   C103      1.0  0.51910  0.30544  0.93822  1.0000
  C   C104      1.0  0.99744  0.20651  0.59492  1.0000
  C   C105      1.0  0.19447  0.01243  0.57042  1.0000
  C   C106      1.0  0.30454  0.47998  0.06477  1.0000
  C   C107      1.0  0.98610  0.69319  0.82137  1.0000
  C   C108      1.0  0.51421  0.80587  0.31101  1.0000
  C   C109      1.0  0.80404  0.48617  0.69029  1.0000
  C   C110      1.0  0.69435  0.01789  0.17593  1.0000
  C   C111      1.0  0.01341  0.80711  0.43128  1.0000
  C   C112      1.0  0.48459  0.69244  0.92621  1.0000
  C   C113      1.0  0.67286  0.45200  0.48109  1.0000
  C   C114      1.0  0.83535  0.05732  0.01028  1.0000
  C   C115      1.0  0.55332  0.17430  0.71927  1.0000
  C   C116      1.0  0.93390  0.33361  0.27192  1.0000
  C   C117      1.0  0.33291  0.05253  0.73182  1.0000
  C   C118      1.0  0.17104  0.44729  0.27500  1.0000
  C   C119      1.0  0.45141  0.32359  0.52082  1.0000
  C   C120      1.0  0.06764  0.16619  0.99440  1.0000
  C   C121      1.0  0.17183  0.94538  0.99119  1.0000
  C   C122      1.0  0.32703  0.54694  0.48419  1.0000
  C   C123      1.0  0.05338  0.67456  0.23853  1.0000
  C   C124      1.0  0.44464  0.83000  0.76518  1.0000
  C   C125      1.0  0.82641  0.55334  0.27031  1.0000
  C   C126      1.0  0.67280  0.95078  0.75714  1.0000
  C   C127      1.0  0.94343  0.83045  0.98093  1.0000
  C   C128      1.0  0.55159  0.67344  0.50456  1.0000
  C   C129      1.0  0.65105  0.56958  0.71541  1.0000
  C   C130      1.0  0.84716  0.93662  0.21752  1.0000
  C   C131      1.0  0.43544  0.14922  0.97051  1.0000
  C   C132      1.0  0.05366  0.34510  0.47715  1.0000
  C   C133      1.0  0.34727  0.93227  0.53020  1.0000
  C   C134      1.0  0.15134  0.56518  0.03402  1.0000
  C   C135      1.0  0.56888  0.35210  0.27506  1.0000
  C   C136      1.0  0.94797  0.15722  0.78295  1.0000
  C   C137      1.0  0.15278  0.06353  0.22754  1.0000
  C   C138      1.0  0.34831  0.42947  0.72379  1.0000
  C   C139      1.0  0.93524  0.64851  0.47845  1.0000
  C   C140      1.0  0.56529  0.85018  0.96315  1.0000
  C   C141      1.0  0.84665  0.43555  0.03283  1.0000
  C   C142      1.0  0.65121  0.06822  0.51971  1.0000
  C   C143      1.0  0.06423  0.85075  0.77925  1.0000
  C   C144      1.0  0.43355  0.64734  0.27220  1.0000
  C   C145      1.0  0.66879  0.58775  0.48282  1.0000
  C   C146      1.0  0.82960  0.91874  0.98246  1.0000
  C   C147      1.0  0.41723  0.16568  0.73677  1.0000
  C   C148      1.0  0.06752  0.32407  0.24948  1.0000
  C   C149      1.0  0.32989  0.91397  0.76470  1.0000
  C   C150      1.0  0.16953  0.58290  0.26513  1.0000
  C   C151      1.0  0.58724  0.33557  0.50669  1.0000
  C   C152      1.0  0.93459  0.17849  0.01125  1.0000
  C   C153      1.0  0.17013  0.08183  0.99267  1.0000
  C   C154      1.0  0.33006  0.41160  0.49425  1.0000
  C   C155      1.0  0.91709  0.66521  0.24642  1.0000
  C   C156      1.0  0.58333  0.83356  0.72832  1.0000
  C   C157      1.0  0.82931  0.41718  0.26713  1.0000
  C   C158      1.0  0.66917  0.08627  0.75017  1.0000
  C   C159      1.0  0.08253  0.83448  0.01370  1.0000
  C   C160      1.0  0.41550  0.66432  0.50439  1.0000
  C   C161      1.0  0.62120  0.58637  0.80737  1.0000
  C   C162      1.0  0.87633  0.91909  0.31369  1.0000
  C   C163      1.0  0.41861  0.11908  0.07379  1.0000
  C   C164      1.0  0.07591  0.37276  0.55250  1.0000
  C   C165      1.0  0.37689  0.91555  0.43229  1.0000
  C   C166      1.0  0.12185  0.58270  0.94557  1.0000
  C   C167      1.0  0.58542  0.38276  0.17944  1.0000
  C   C168      1.0  0.92515  0.13012  0.70585  1.0000
  C   C169      1.0  0.12329  0.08016  0.33006  1.0000
  C   C170      1.0  0.37802  0.41221  0.81043  1.0000
  C   C171      1.0  0.91808  0.61810  0.57246  1.0000
  C   C172      1.0  0.58253  0.88052  0.05732  1.0000
  C   C173      1.0  0.87632  0.41910  0.93250  1.0000
  C   C174      1.0  0.62145  0.08522  0.43094  1.0000
  C   C175      1.0  0.08111  0.88115  0.68071  1.0000
  C   C176      1.0  0.41631  0.61693  0.18064  1.0000
  C   C177      1.0  0.68314  0.43769  0.19593  1.0000
  C   C178      1.0  0.81618  0.06841  0.76141  1.0000
  C   C179      1.0  0.56736  0.18517  0.43223  1.0000
  C   C180      1.0  0.91813  0.32285  0.99107  1.0000
  C   C181      1.0  0.31379  0.06376  0.98240  1.0000
  C   C182      1.0  0.18136  0.43312  0.55999  1.0000
  C   C183      1.0  0.43758  0.31229  0.80748  1.0000
  C   C184      1.0  0.08361  0.17648  0.27564  1.0000
  C   C185      1.0  0.18223  0.93131  0.70522  1.0000
  C   C186      1.0  0.31682  0.56126  0.19979  1.0000
  C   C187      1.0  0.06724  0.68609  0.95270  1.0000
  C   C188      1.0  0.43357  0.81017  0.51641  1.0000
  C   C189      1.0  0.81614  0.56762  0.55565  1.0000
  C   C190      1.0  0.68347  0.93671  0.04135  1.0000
  C   C191      1.0  0.93276  0.81029  0.22956  1.0000
  C   C192      1.0  0.56574  0.68467  0.78904  1.0000
  C   C193      1.0  0.64986  0.42743  0.61551  1.0000
  C   C194      1.0  0.86329  0.07972  0.07494  1.0000
  C   C195      1.0  0.57763  0.15198  0.84740  1.0000
  C   C196      1.0  0.91246  0.35861  0.40086  1.0000
  C   C197      1.0  0.36018  0.07544  0.65816  1.0000
  C   C198      1.0  0.14727  0.42319  0.14597  1.0000
  C   C199      1.0  0.42652  0.34528  0.39237  1.0000
  C   C200      1.0  0.08852  0.14081  0.86393  1.0000
  C   C201      1.0  0.14831  0.92107  0.12161  1.0000
  C   C202      1.0  0.35038  0.57127  0.61618  1.0000
  C   C203      1.0  0.07789  0.65241  0.36533  1.0000
  C   C204      1.0  0.42186  0.85632  0.83487  1.0000
  C   C205      1.0  0.84978  0.57764  0.13705  1.0000
  C   C206      1.0  0.64969  0.92617  0.62641  1.0000
  C   C207      1.0  0.92032  0.85656  0.91537  1.0000
  C   C208      1.0  0.57590  0.65119  0.37354  1.0000
  C   C209      1.0  0.50007  0.49934  0.49896  1.0000
  C   C210      1.0  0.00123  0.99995  0.99853  1.0000
  C   C211      1.0  0.49993  0.99944  0.74664  1.0000
  C   C212      1.0  0.99856  0.50013  0.25383  1.0000
  N   N1        1.0  0.68641  0.50355  0.83053  1.0000
  N   N2        1.0  0.81450  0.00416  0.33421  1.0000
  N   N3        1.0  0.50198  0.18687  0.07429  1.0000
  N   N4        1.0  0.98672  0.31780  0.62436  1.0000
  N   N5        1.0  0.31363  0.99903  0.41208  1.0000
  N   N6        1.0  0.18601  0.49861  0.92248  1.0000
  N   N7        1.0  0.50325  0.31259  0.16745  1.0000
  N   N8        1.0  0.01543  0.18300  0.63922  1.0000
  N   N9        1.0  0.18663  0.99677  0.34082  1.0000
  N   N10       1.0  0.31284  0.49546  0.83485  1.0000
  N   N11       1.0  0.00178  0.68634  0.59053  1.0000
  N   N12       1.0  0.49826  0.81285  0.08352  1.0000
  N   N13       1.0  0.81206  0.50184  0.91946  1.0000
  N   N14       1.0  0.68657  0.00230  0.40666  1.0000
  N   N15       1.0  0.99721  0.81370  0.65957  1.0000
  N   N16       1.0  0.50013  0.68527  0.15598  1.0000
  C  Sn1       1.0  0.54545  0.53657  0.85578  1.0000
  C   C213      1.0  0.53873  0.51540  0.63615  1.0000
  C  Sn2       1.0  0.55647  0.48865  0.60227  1.0000
  C  Sn3       1.0  0.58144  0.48291  0.79197  1.0000
  C   C214      1.0  0.58860  0.50405  0.01145  1.0000
  C  Sn4       1.0  0.57087  0.53082  0.04547  1.0000
  O  Te1       1.0  0.52740  0.56316  0.88566  1.0000
  O  Te2       1.0  0.54931  0.46783  0.38104  1.0000
  O  Te3       1.0  0.59949  0.45629  0.76190  1.0000
  O  Te4       1.0  0.57801  0.55162  0.26657  1.0000
  Mg  Mg1       1.0  0.58063  0.43490  0.42776  1.0000
  Mg  Mg2       1.0  0.54670  0.58455  0.22014  1.0000
  C  Sn5       1.0  0.55207  0.53187  0.00940  1.0000
  C   C215      1.0  0.56589  0.50424  0.09761  1.0000
  C  Sn6       1.0  0.57344  0.48149  0.89866  1.0000
  C  Sn7       1.0  0.56752  0.48645  0.60540  1.0000
  C   C216      1.0  0.55372  0.51407  0.51732  1.0000
  C  Sn8       1.0  0.54571  0.53685  0.71614  1.0000
  O  Te5       1.0  0.54427  0.55432  0.21200  1.0000
  O  Te6       1.0  0.58722  0.45406  0.99198  1.0000
  O  Te7       1.0  0.57534  0.46398  0.40279  1.0000
  O  Te8       1.0  0.53194  0.56427  0.62294  1.0000
  Mg  Mg3       1.0  0.59365  0.43045  0.63467  1.0000
  Mg  Mg4       1.0  0.52551  0.58790  0.98003  1.0000
  C  Sn9       1.0  0.94731  0.97564  0.56401  1.0000
  C   C217      1.0  0.92088  0.99423  0.55409  1.0000
  C  Sn10      1.0  0.88891  0.01283  0.31611  1.0000
  C  Sn11      1.0  0.91015  0.01284  0.08308  1.0000
  C   C218      1.0  0.96292  0.99426  0.09304  1.0000
  C  Sn12      1.0  0.96854  0.97565  0.33098  1.0000
  O  Te9       1.0  0.95244  0.95723  0.80406  1.0000
  O  Te10      1.0  0.86234  0.03123  0.31115  1.0000
  O  Te11      1.0  0.90454  0.03129  0.84292  1.0000
  O  Te12      1.0  0.99509  0.95726  0.33598  1.0000
  Mg  Mg5       1.0  0.86506  0.05234  0.93654  1.0000
  Mg  Mg6       1.0  0.99194  0.93614  0.71040  1.0000
  C  Sn13      1.0  0.46964  0.05086  0.26128  1.0000
  C   C219      1.0  0.49789  0.06506  0.34778  1.0000
  C  Sn14      1.0  0.52088  0.07342  0.14726  1.0000
  C  Sn15      1.0  0.51506  0.06749  0.85414  1.0000
  C   C220      1.0  0.48682  0.05331  0.76778  1.0000
  C  Sn16      1.0  0.46382  0.04494  0.96816  1.0000
  O  Te13      1.0  0.44699  0.04270  0.46542  1.0000
  O  Te14      1.0  0.54894  0.08758  0.23888  1.0000
  O  Te15      1.0  0.53773  0.07566  0.64998  1.0000
  O  Te16      1.0  0.43577  0.03079  0.87667  1.0000
  Mg  Mg7       1.0  0.57215  0.09442  0.87986  1.0000
  Mg  Mg8       1.0  0.41253  0.02395  0.23547  1.0000
  C  Sn17      1.0  0.47523  0.05221  0.31034  1.0000
  C   C221      1.0  0.49350  0.07979  0.29748  1.0000
  C  Sn18      1.0  0.51200  0.08649  0.05805  1.0000
  C  Sn19      1.0  0.51178  0.06520  0.82655  1.0000
  C   C222      1.0  0.49352  0.03764  0.83945  1.0000
  C  Sn20      1.0  0.47546  0.03090  0.07884  1.0000
  O  Te17      1.0  0.45691  0.04599  0.55181  1.0000
  O  Te18      1.0  0.53008  0.11420  0.05015  1.0000
  O  Te19      1.0  0.53013  0.07143  0.58498  1.0000
  O  Te20      1.0  0.45739  0.00320  0.08679  1.0000
  Mg  Mg9       1.0  0.55072  0.11227  0.67457  1.0000
  Mg  Mg10      1.0  0.43628  0.00514  0.46217  1.0000
  C  Sn21      1.0  0.97412  0.43871  0.44837  1.0000
  C   C223      1.0  0.99354  0.46551  0.46088  1.0000
  C  Sn22      1.0  0.02230  0.46479  0.60119  1.0000
  C  Sn23      1.0  0.03187  0.43669  0.73158  1.0000
  C   C224      1.0  0.01245  0.40992  0.71899  1.0000
  C  Sn24      1.0  0.98368  0.41062  0.57876  1.0000
  O  Te21      1.0  0.94546  0.43996  0.30695  1.0000
  O  Te22      1.0  0.04132  0.49188  0.61095  1.0000
  O  Te23      1.0  0.06055  0.43546  0.87307  1.0000
  O  Te24      1.0  0.96467  0.38355  0.56892  1.0000
  Mg  Mg11      1.0  0.07825  0.47845  0.82855  1.0000
  Mg  Mg12      1.0  0.92775  0.39694  0.35126  1.0000
  C  Sn25      1.0  0.02671  0.44750  0.76914  1.0000
  C   C225      1.0  0.99793  0.43442  0.85736  1.0000
  C  Sn26      1.0  0.97461  0.42716  0.65843  1.0000
  C  Sn27      1.0  0.98018  0.43306  0.36517  1.0000
  C   C226      1.0  0.00895  0.44611  0.27708  1.0000
  C  Sn28      1.0  0.03228  0.45340  0.47588  1.0000
  O  Te25      1.0  0.04968  0.45457  0.97172  1.0000
  O  Te26      1.0  0.94602  0.41411  0.75176  1.0000
  O  Te27      1.0  0.95718  0.42596  0.16258  1.0000
  O  Te28      1.0  0.06086  0.46642  0.38268  1.0000
  Mg  Mg13      1.0  0.92207  0.40850  0.39448  1.0000
  Mg  Mg14      1.0  0.08483  0.47203  0.73974  1.0000
  C  Sn29      1.0  0.43062  0.96227  0.29302  1.0000
  C   C227      1.0  0.41873  0.99067  0.20070  1.0000
  C  Sn30      1.0  0.39938  0.01834  0.34818  1.0000
  C  Sn31      1.0  0.41870  0.01762  0.59297  1.0000
  C   C228      1.0  0.45694  0.98924  0.68515  1.0000
  C  Sn32      1.0  0.44993  0.96155  0.53781  1.0000
  O  Te29      1.0  0.42330  0.93489  0.14228  1.0000
  O  Te30      1.0  0.38722  0.04644  0.25186  1.0000
  O  Te31      1.0  0.42601  0.04503  0.74370  1.0000
  O  Te32      1.0  0.46209  0.93346  0.63398  1.0000
  Mg  Mg15      1.0  0.40386  0.07752  0.52896  1.0000
  Mg  Mg16      1.0  0.44548  0.90237  0.35698  1.0000
  C  Sn33      1.0  0.43088  0.00744  0.67106  1.0000
  C   C229      1.0  0.48491  0.99083  0.64843  1.0000
  C  Sn34      1.0  0.49079  0.97278  0.40697  1.0000
  C  Sn35      1.0  0.46857  0.97133  0.18336  1.0000
  C   C230      1.0  0.44093  0.98795  0.20602  1.0000
  C  Sn36      1.0  0.40866  0.00599  0.44745  1.0000
  O  Te33      1.0  0.42549  0.02533  0.91438  1.0000
  O  Te34      1.0  0.51861  0.95637  0.38925  1.0000
  O  Te35      1.0  0.47353  0.95344  0.93993  1.0000
  O  Te36      1.0  0.38086  0.02241  0.46521  1.0000
  Mg  Mg17      1.0  0.51532  0.93525  0.01491  1.0000
  Mg  Mg18      1.0  0.38414  0.04354  0.83936  1.0000
  C  Sn37      1.0  0.07595  0.47925  0.96586  1.0000
  C   C231      1.0  0.08435  0.50142  0.75868  1.0000
  C  Sn38      1.0  0.06729  0.52867  0.72913  1.0000
  C  Sn39      1.0  0.04130  0.53388  0.91056  1.0000
  C   C232      1.0  0.03336  0.51170  0.11762  1.0000
  C  Sn40      1.0  0.05041  0.48445  0.14729  1.0000
  O  Te37      1.0  0.09334  0.45218  0.99162  1.0000
  O  Te38      1.0  0.07613  0.55048  0.52037  1.0000
  O  Te39      1.0  0.02391  0.56097  0.88464  1.0000
  O  Te40      1.0  0.04158  0.46264  0.35593  1.0000
  Mg  Mg19      1.0  0.04513  0.58374  0.56831  1.0000
  Mg  Mg20      1.0  0.07258  0.42939  0.30828  1.0000
  C  Sn41      1.0  0.53835  0.43996  0.04704  1.0000
  C   C233      1.0  0.51960  0.41266  0.04899  1.0000
  C  Sn42      1.0  0.49078  0.41191  0.19109  1.0000
  C  Sn43      1.0  0.48047  0.43901  0.33411  1.0000
  C   C234      1.0  0.49921  0.46630  0.33208  1.0000
  C  Sn44      1.0  0.52804  0.46707  0.19006  1.0000
  O  Te41      1.0  0.56663  0.44020  0.90360  1.0000
  O  Te42      1.0  0.47245  0.38433  0.19014  1.0000
  O  Te43      1.0  0.45172  0.43877  0.47762  1.0000
  O  Te44      1.0  0.54635  0.49462  0.19093  1.0000
  Mg  Mg21      1.0  0.43512  0.39565  0.41545  1.0000
  Mg  Mg22      1.0  0.58323  0.48336  0.96558  1.0000
  C  Sn45      1.0  0.53745  0.43206  0.04301  1.0000
  C   C235      1.0  0.50849  0.41896  0.95017  1.0000
  C  Sn46      1.0  0.48126  0.42452  0.09926  1.0000
  C  Sn47      1.0  0.48208  0.44363  0.34621  1.0000
  C   C236      1.0  0.51057  0.45674  0.43890  1.0000
  C  Sn48      1.0  0.53826  0.45117  0.28996  1.0000
  O  Te45      1.0  0.56438  0.42619  0.89065  1.0000
  O  Te46      1.0  0.45305  0.41114  0.00237  1.0000
  O  Te47      1.0  0.45467  0.44951  0.49856  1.0000
  O  Te48      1.0  0.56646  0.46454  0.38670  1.0000
  Mg  Mg23      1.0  0.42201  0.42605  0.28226  1.0000
  Mg  Mg24      1.0  0.59751  0.44966  0.10691  1.0000
  C  Sn49      1.0  0.96863  0.07008  0.54726  1.0000
  C   C237      1.0  0.99788  0.08160  0.45490  1.0000
  C  Sn50      1.0  0.02507  0.07398  0.60112  1.0000
  C  Sn51      1.0  0.02298  0.05441  0.84466  1.0000
  C   C238      1.0  0.99375  0.04289  0.93687  1.0000
  C  Sn52      1.0  0.96655  0.05051  0.79079  1.0000
  O  Te49      1.0  0.94176  0.07800  0.39781  1.0000
  O  Te50      1.0  0.05404  0.08580  0.50479  1.0000
  O  Te51      1.0  0.04989  0.04650  0.99411  1.0000
  O  Te52      1.0  0.93759  0.03870  0.88698  1.0000
  Mg  Mg25      1.0  0.08396  0.06836  0.77989  1.0000
  Mg  Mg26      1.0  0.90766  0.05610  0.61198  1.0000
  C  Sn53      1.0  0.01360  0.06858  0.92532  1.0000
  C   C239      1.0  0.99536  0.04111  0.89868  1.0000
  C  Sn54      1.0  0.97703  0.03591  0.65671  1.0000
  C  Sn55      1.0  0.97695  0.05862  0.43666  1.0000
  C   C240      1.0  0.99518  0.08607  0.46333  1.0000
  C  Sn56      1.0  0.01351  0.09130  0.70527  1.0000
  O  Te53      1.0  0.03220  0.07328  0.16909  1.0000
  O  Te54      1.0  0.95899  0.00827  0.63494  1.0000
  O  Te55      1.0  0.95878  0.05389  0.19278  1.0000
  O  Te56      1.0  0.03156  0.11892  0.72706  1.0000
  Mg  Mg27      1.0  0.93816  0.01255  0.26162  1.0000
  Mg  Mg28      1.0  0.05286  0.11464  0.10021  1.0000
  C  Sn57      1.0  0.06218  0.97730  0.19349  1.0000
  C   C241      1.0  0.03587  0.99607  0.20198  1.0000
  C  Sn58      1.0  0.01077  0.02495  0.34137  1.0000
  C  Sn59      1.0  0.03893  0.03529  0.47493  1.0000
  C   C242      1.0  0.06521  0.01653  0.46637  1.0000
  C  Sn60      1.0  0.09033  0.98765  0.32705  1.0000
  O  Te57      1.0  0.06037  0.94852  0.05292  1.0000
  O  Te58      1.0  0.98416  0.04329  0.34709  1.0000
  O  Te59      1.0  0.04071  0.06410  0.61558  1.0000
  O  Te60      1.0  0.11692  0.96931  0.32126  1.0000
  Mg  Mg29      1.0  0.99824  0.08070  0.56508  1.0000
  Mg  Mg30      1.0  0.10287  0.93190  0.10322  1.0000
  C  Sn61      1.0  0.05423  0.02978  0.51159  1.0000
  C   C243      1.0  0.06651  0.00148  0.60173  1.0000
  C  Sn62      1.0  0.09989  0.97824  0.40411  1.0000
  C  Sn63      1.0  0.09453  0.98339  0.11022  1.0000
  C   C244      1.0  0.05588  0.01167  0.02021  1.0000
  C  Sn64      1.0  0.04886  0.03494  0.21770  1.0000
  O  Te61      1.0  0.04740  0.05270  0.71289  1.0000
  O  Te62      1.0  0.11215  0.95013  0.49935  1.0000
  O  Te63      1.0  0.10092  0.96046  0.90891  1.0000
  O  Te64      1.0  0.03662  0.06303  0.12258  1.0000
  Mg  Mg31      1.0  0.11770  0.92607  0.14326  1.0000
  Mg  Mg32      1.0  0.03107  0.08711  0.47845  1.0000
  C  Sn65      1.0  0.44822  0.46703  0.01596  1.0000
  C   C245      1.0  0.43425  0.49470  0.10230  1.0000
  C  Sn66      1.0  0.42570  0.51719  0.90160  1.0000
  C  Sn67      1.0  0.43167  0.51189  0.60846  1.0000
  C   C246      1.0  0.44562  0.48424  0.52226  1.0000
  C  Sn68      1.0  0.45373  0.46175  0.72283  1.0000
  O  Te65      1.0  0.45611  0.44489  0.22029  1.0000
  O  Te66      1.0  0.41178  0.54467  0.99306  1.0000
  O  Te67      1.0  0.42376  0.53406  0.40412  1.0000
  O  Te68      1.0  0.46764  0.43428  0.63149  1.0000
  Mg  Mg33      1.0  0.40525  0.56779  0.63383  1.0000
  Mg  Mg34      1.0  0.47416  0.41114  0.99051  1.0000
  C  Sn69      1.0  0.44695  0.47253  0.06446  1.0000
  C   C247      1.0  0.41960  0.48974  0.05321  1.0000
  C  Sn70      1.0  0.41264  0.50785  0.81402  1.0000
  C  Sn71      1.0  0.43390  0.50873  0.58112  1.0000
  C   C248      1.0  0.46123  0.49152  0.59242  1.0000
  C  Sn72      1.0  0.46776  0.47343  0.83156  1.0000
  O  Te69      1.0  0.45298  0.45461  0.30572  1.0000
  O  Te70      1.0  0.38515  0.52487  0.80774  1.0000
  O  Te71      1.0  0.42785  0.52668  0.33976  1.0000
  O  Te72      1.0  0.49523  0.45641  0.83789  1.0000
  Mg  Mg35      1.0  0.38730  0.54578  0.43182  1.0000
  Mg  Mg36      1.0  0.49355  0.43547  0.21362  1.0000
  C  Sn73      1.0  0.00975  0.58495  0.42462  1.0000
  C   C249      1.0  0.98881  0.59175  0.64427  1.0000
  C  Sn74      1.0  0.97108  0.56781  0.77468  1.0000
  C  Sn75      1.0  0.97434  0.53642  0.68379  1.0000
  C   C250      1.0  0.99527  0.52963  0.46431  1.0000
  C  Sn76      1.0  0.01301  0.55356  0.33373  1.0000
  O  Te73      1.0  0.02724  0.60926  0.29730  1.0000
  O  Te74      1.0  0.95030  0.57519  0.99377  1.0000
  O  Te75      1.0  0.95682  0.51211  0.81132  1.0000
  O  Te76      1.0  0.03379  0.54619  0.11481  1.0000
  Mg  Mg37      1.0  0.93209  0.53392  0.10104  1.0000
  Mg  Mg38      1.0  0.05246  0.58742  0.00749  1.0000
  C  Sn77      1.0  0.49075  0.91452  0.91852  1.0000
  C   C251      1.0  0.51224  0.90812  0.13682  1.0000
  C  Sn78      1.0  0.52937  0.93241  0.26731  1.0000
  C  Sn79      1.0  0.52537  0.96373  0.17787  1.0000
  C   C252      1.0  0.50388  0.97012  0.95974  1.0000
  C  Sn80      1.0  0.48675  0.94584  0.82909  1.0000
  O  Te77      1.0  0.47388  0.88987  0.79110  1.0000
  O  Te78      1.0  0.55027  0.92545  0.48503  1.0000
  O  Te79      1.0  0.54226  0.98839  0.30550  1.0000
  O  Te80      1.0  0.46585  0.95279  0.61153  1.0000
  Mg  Mg39      1.0  0.56790  0.96706  0.59304  1.0000
  Mg  Mg40      1.0  0.44820  0.91120  0.50347  1.0000
  C  Sn81      1.0  0.53035  0.94826  0.26068  1.0000
  C   C253      1.0  0.50213  0.93402  0.34965  1.0000
  C  Sn82      1.0  0.47914  0.92559  0.15113  1.0000
  C  Sn83      1.0  0.48402  0.93150  0.85751  1.0000
  C   C254      1.0  0.51222  0.94572  0.76866  1.0000
  C  Sn84      1.0  0.53522  0.95417  0.96706  1.0000
  O  Te81      1.0  0.55300  0.95649  0.46286  1.0000
  O  Te82      1.0  0.45111  0.91139  0.24522  1.0000
  O  Te83      1.0  0.46133  0.92325  0.65531  1.0000
  O  Te84      1.0  0.56324  0.96836  0.87310  1.0000
  Mg  Mg41      1.0  0.42697  0.90447  0.88823  1.0000
  Mg  Mg42      1.0  0.58740  0.97527  0.22986  1.0000
  C  Sn85      1.0  0.92803  0.46504  0.80445  1.0000
  C   C255      1.0  0.91718  0.49376  0.70937  1.0000
  C  Sn86      1.0  0.92506  0.52134  0.85499  1.0000
  C  Sn87      1.0  0.94465  0.52018  0.10067  1.0000
  C   C256      1.0  0.95550  0.49147  0.19559  1.0000
  C  Sn88      1.0  0.94762  0.46388  0.05013  1.0000
  O  Te85      1.0  0.91986  0.43776  0.65555  1.0000
  O  Te86      1.0  0.91392  0.54978  0.75592  1.0000
  O  Te87      1.0  0.95282  0.54749  0.24956  1.0000
  O  Te88      1.0  0.95876  0.43546  0.14904  1.0000
  Mg  Mg43      1.0  0.93191  0.58054  0.03130  1.0000
  Mg  Mg44      1.0  0.94079  0.40468  0.87377  1.0000
  C  Sn89      1.0  0.95988  0.47728  0.78540  1.0000
  C   C257      1.0  0.96727  0.49718  0.01392  1.0000
  C  Sn90      1.0  0.94367  0.51430  0.14295  1.0000
  C  Sn91      1.0  0.91247  0.51144  0.04158  1.0000
  C   C258      1.0  0.90509  0.49155  0.81324  1.0000
  C  Sn92      1.0  0.92869  0.47442  0.68404  1.0000
  O  Te89      1.0  0.98385  0.46039  0.65966  1.0000
  O  Te90      1.0  0.95118  0.53406  0.37103  1.0000
  O  Te91      1.0  0.88850  0.52835  0.16754  1.0000
  O  Te92      1.0  0.92119  0.45466  0.45613  1.0000
  Mg  Mg45      1.0  0.91040  0.55219  0.47203  1.0000
  Mg  Mg46      1.0  0.96194  0.43651  0.35507  1.0000
  C  Sn93      1.0  0.56121  0.03769  0.29345  1.0000
  C   C259      1.0  0.58763  0.01907  0.29403  1.0000
  C  Sn94      1.0  0.61335  0.99033  0.43570  1.0000
  C  Sn95      1.0  0.58571  0.97997  0.57966  1.0000
  C   C260      1.0  0.55931  0.99859  0.57899  1.0000
  C  Sn96      1.0  0.53357  0.02734  0.43741  1.0000
  O  Te93      1.0  0.56239  0.06634  0.15042  1.0000
  O  Te94      1.0  0.64006  0.97212  0.43338  1.0000
  O  Te95      1.0  0.58455  0.95130  0.72275  1.0000
  O  Te96      1.0  0.50688  0.04553  0.43964  1.0000
  Mg  Mg47      1.0  0.62692  0.93486  0.65862  1.0000
  Mg  Mg48      1.0  0.51999  0.08279  0.21436  1.0000
  C  Sn97      1.0  0.56898  0.03685  0.28935  1.0000
  C   C261      1.0  0.58095  0.00848  0.19635  1.0000
  C  Sn98      1.0  0.60046  0.98083  0.34501  1.0000
  C  Sn99      1.0  0.58121  0.98154  0.59169  1.0000
  C   C262      1.0  0.54288  0.00989  0.68454  1.0000
  C  Sn100     1.0  0.54974  0.03756  0.53603  1.0000
  O  Te97      1.0  0.57615  0.06421  0.13742  1.0000
  O  Te98      1.0  0.61271  0.95275  0.24797  1.0000
  O  Te99      1.0  0.57406  0.95414  0.74361  1.0000
  O  Te100     1.0  0.53750  0.06563  0.63292  1.0000
  Mg  Mg49      1.0  0.59627  0.92168  0.52725  1.0000
  Mg  Mg50      1.0  0.55390  0.09670  0.35374  1.0000
  C  Sn101     1.0  0.98948  0.93094  0.92293  1.0000
  C   C263      1.0  0.00736  0.95871  0.90116  1.0000
  C  Sn102     1.0  0.02591  0.96464  0.66051  1.0000
  C  Sn103     1.0  0.02660  0.94237  0.43683  1.0000
  C   C264      1.0  0.00873  0.91462  0.45864  1.0000
  C  Sn104     1.0  0.99017  0.90867  0.69926  1.0000
  O  Te101     1.0  0.97156  0.92548  0.16546  1.0000
  O  Te102     1.0  0.04358  0.99257  0.64363  1.0000
  O  Te103     1.0  0.04500  0.94784  0.19419  1.0000
  O  Te104     1.0  0.97250  0.88077  0.71617  1.0000
  Mg  Mg51      1.0  0.06493  0.98932  0.27018  1.0000
  Mg  Mg52      1.0  0.95158  0.88398  0.08944  1.0000
  C  Sn105     1.0  0.46420  0.56671  0.04209  1.0000
  C   C265      1.0  0.49230  0.57981  0.94794  1.0000
  C  Sn106     1.0  0.52040  0.57405  0.09491  1.0000
  C  Sn107     1.0  0.51949  0.55482  0.34103  1.0000
  C   C266      1.0  0.49096  0.54175  0.43503  1.0000
  C  Sn108     1.0  0.46330  0.54748  0.28821  1.0000
  O  Te105     1.0  0.43640  0.57278  0.89184  1.0000
  O  Te106     1.0  0.54821  0.58741  0.99675  1.0000
  O  Te107     1.0  0.54687  0.54878  0.49127  1.0000
  O  Te108     1.0  0.43505  0.53415  0.38622  1.0000
  Mg  Mg53      1.0  0.57962  0.57224  0.27386  1.0000
  Mg  Mg54      1.0  0.40408  0.54927  0.10921  1.0000
  C  Sn109     1.0  0.51999  0.57753  0.20487  1.0000
  C   C267      1.0  0.49742  0.58423  0.99651  1.0000
  C  Sn110     1.0  0.47020  0.56562  0.96952  1.0000
  C  Sn111     1.0  0.46543  0.53977  0.15477  1.0000
  C   C268      1.0  0.48754  0.53310  0.36301  1.0000
  C  Sn112     1.0  0.51477  0.55170  0.39012  1.0000
  O  Te109     1.0  0.54703  0.59646  0.22802  1.0000
  O  Te110     1.0  0.44843  0.57276  0.75952  1.0000
  O  Te111     1.0  0.43836  0.52084  0.13145  1.0000
  O  Te112     1.0  0.53653  0.54457  0.60000  1.0000
  Mg  Mg55      1.0  0.41520  0.54006  0.81207  1.0000
  Mg  Mg56      1.0  0.56975  0.57727  0.54774  1.0000
  C  Sn113     1.0  0.74558  0.51591  0.65755  1.0000
  C   C269      1.0  0.76726  0.49303  0.59200  1.0000
  C  Sn114     1.0  0.76795  0.47968  0.32064  1.0000
  C  Sn115     1.0  0.74654  0.48941  0.11033  1.0000
  C   C270      1.0  0.72488  0.51228  0.17590  1.0000
  C  Sn116     1.0  0.72416  0.52564  0.44724  1.0000
  O  Te113     1.0  0.74531  0.52895  0.93021  1.0000
  O  Te114     1.0  0.78983  0.45683  0.26016  1.0000
  O  Te115     1.0  0.74637  0.47637  0.83752  1.0000
  O  Te116     1.0  0.70230  0.54848  0.50774  1.0000
  Mg  Mg57      1.0  0.78057  0.44607  0.85789  1.0000
  Mg  Mg58      1.0  0.71110  0.55928  0.90987  1.0000
  C  Sn117     1.0  0.75598  0.02753  0.67199  1.0000
  C   C271      1.0  0.77752  0.00450  0.73543  1.0000
  C  Sn118     1.0  0.79608  0.98061  0.92794  1.0000
  C  Sn119     1.0  0.76656  0.97970  0.05967  1.0000
  C   C272      1.0  0.71822  0.00273  0.99618  1.0000
  C  Sn120     1.0  0.72601  0.02663  0.80372  1.0000
  O  Te117     1.0  0.76429  0.05119  0.47887  1.0000
  O  Te118     1.0  0.81801  0.95786  0.98805  1.0000
  O  Te119     1.0  0.75827  0.95601  0.25291  1.0000
  O  Te120     1.0  0.70410  0.04937  0.74356  1.0000
  Mg  Mg59      1.0  0.79615  0.93032  0.26549  1.0000
  Mg  Mg60      1.0  0.72638  0.07689  0.46605  1.0000
  C  Sn121     1.0  0.47308  0.23963  0.71726  1.0000
  C   C273      1.0  0.48743  0.22824  0.47164  1.0000
  C  Sn122     1.0  0.51685  0.23997  0.38660  1.0000
  C  Sn123     1.0  0.53226  0.26357  0.55057  1.0000
  C   C274      1.0  0.51791  0.27494  0.79605  1.0000
  C  Sn124     1.0  0.48848  0.26322  0.88123  1.0000
  O  Te121     1.0  0.44365  0.22756  0.79828  1.0000
  O  Te122     1.0  0.53073  0.22822  0.14018  1.0000
  O  Te123     1.0  0.56171  0.27563  0.46933  1.0000
  O  Te124     1.0  0.47506  0.27494  0.12751  1.0000
  Mg  Mg61      1.0  0.57104  0.25211  0.11731  1.0000
  Mg  Mg62      1.0  0.43477  0.25106  0.15066  1.0000
  C  Sn125     1.0  0.98045  0.27487  0.20548  1.0000
  C   C275      1.0  0.00169  0.27722  0.98231  1.0000
  C  Sn126     1.0  0.02247  0.25313  0.93130  1.0000
  C  Sn127     1.0  0.02199  0.22611  0.10688  1.0000
  C   C276      1.0  0.00031  0.22378  0.32985  1.0000
  C  Sn128     1.0  0.97952  0.24787  0.38106  1.0000
  O  Te125     1.0  0.95990  0.29925  0.25257  1.0000
  O  Te126     1.0  0.04395  0.25600  0.70697  1.0000
  O  Te127     1.0  0.04257  0.20173  0.05961  1.0000
  O  Te128     1.0  0.95805  0.24501  0.60520  1.0000
  Mg  Mg63      1.0  0.06711  0.21654  0.72779  1.0000
  Mg  Mg64      1.0  0.93487  0.28445  0.58449  1.0000
  C  Sn129     1.0  0.26909  0.98056  0.68419  1.0000
  C   C277      1.0  0.28054  0.99421  0.93467  1.0000
  C  Sn130     1.0  0.23508  0.01188  0.10727  1.0000
  C  Sn131     1.0  0.20343  0.01599  0.02797  1.0000
  C   C278      1.0  0.19154  0.00235  0.77765  1.0000
  C  Sn132     1.0  0.23744  0.98467  0.60488  1.0000
  O  Te129     1.0  0.28904  0.96297  0.51488  1.0000
  O  Te130     1.0  0.24707  0.02531  0.35665  1.0000
  O  Te131     1.0  0.18348  0.03359  0.19753  1.0000
  O  Te132     1.0  0.22547  0.97123  0.35568  1.0000
  Mg  Mg65      1.0  0.21070  0.04721  0.51697  1.0000
  Mg  Mg66      1.0  0.26181  0.94932  0.19528  1.0000
  C  Sn133     1.0  0.23082  0.51442  0.18695  1.0000
  C   C279      1.0  0.21913  0.50140  0.44011  1.0000
  C  Sn134     1.0  0.23800  0.48275  0.60874  1.0000
  C  Sn135     1.0  0.26921  0.47700  0.52265  1.0000
  C   C280      1.0  0.28089  0.49002  0.26967  1.0000
  C  Sn136     1.0  0.26203  0.50867  0.10087  1.0000
  O  Te133     1.0  0.21154  0.53300  0.02170  1.0000
  O  Te134     1.0  0.22579  0.46998  0.86089  1.0000
  O  Te135     1.0  0.28849  0.45840  0.68815  1.0000
  O  Te136     1.0  0.27378  0.52145  0.84889  1.0000
  Mg  Mg67      1.0  0.26166  0.44623  0.01366  1.0000
  Mg  Mg68      1.0  0.23839  0.54521  0.69603  1.0000
  C  Sn137     1.0  0.97154  0.73803  0.23366  1.0000
  C   C281      1.0  0.98543  0.72711  0.98615  1.0000
  C  Sn138     1.0  0.01375  0.74059  0.89130  1.0000
  C  Sn139     1.0  0.02851  0.76548  0.04717  1.0000
  C   C282      1.0  0.01418  0.77639  0.29453  1.0000
  C  Sn140     1.0  0.98585  0.76294  0.38952  1.0000
  O  Te137     1.0  0.94323  0.72421  0.32454  1.0000
  O  Te138     1.0  0.02763  0.72926  0.64320  1.0000
  O  Te139     1.0  0.05640  0.77931  0.95606  1.0000
  O  Te140     1.0  0.97198  0.77424  0.63748  1.0000
  Mg  Mg69      1.0  0.06620  0.75572  0.60556  1.0000
  Mg  Mg70      1.0  0.93342  0.74780  0.67540  1.0000
  C  Sn141     1.0  0.51226  0.75318  0.90250  1.0000
  C   C283      1.0  0.49085  0.72928  0.82834  1.0000
  C  Sn142     1.0  0.47818  0.72800  0.55472  1.0000
  C  Sn143     1.0  0.48710  0.75107  0.35090  1.0000
  C   C284      1.0  0.50851  0.77494  0.42508  1.0000
  C  Sn144     1.0  0.52119  0.77625  0.69868  1.0000
  O  Te141     1.0  0.52509  0.75398  0.17727  1.0000
  O  Te142     1.0  0.45680  0.70389  0.48559  1.0000
  O  Te143     1.0  0.47471  0.75023  0.07596  1.0000
  O  Te144     1.0  0.54255  0.80033  0.76782  1.0000
  Mg  Mg71      1.0  0.44644  0.71278  0.08366  1.0000
  Mg  Mg72      1.0  0.55340  0.79144  0.16962  1.0000
