data_image0
_chemical_formula_structural       H272C212N16SnCSn2CSnTe4Mg2SnCSn2CSnTe4Mg2SnCSn2CSnTe4Mg2SnCSn2CSnTe4Mg2SnCSn2CSnTe4Mg2SnCSn2CSnTe4Mg2SnCSn2CSnTe4Mg2SnCSn2CSnTe4Mg2SnCSn2CSnTe4Mg2SnCSn2CSnTe4Mg2SnCSn2CSnTe4Mg2SnCSn2CSnTe4Mg2SnCSn2CSnTe4Mg2SnCSn2CSnTe4Mg2SnCSn2CSnTe4Mg2SnCSn2CSnTe4Mg2SnCSn2CSnTe4Mg2SnCSn2CSnTe4Mg2SnCSn2CSnTe4Mg2SnCSn2CSnTe4Mg2SnCSn2CSnTe4Mg2SnCSn2CSnTe4Mg2SnCSn2CSnTe4Mg2SnCSn2CSnTe4Mg2SnCSn2CSnTe4Mg2SnCSn2CSnTe4Mg2SnCSn2CSnTe4Mg2SnCSn2CSnTe4Mg2SnCSn2CSnTe4Mg2SnCSn2CSnTe4Mg2SnCSn2CSnTe4Mg2SnCSn2CSnTe4Mg2
_chemical_formula_sum              "H272 C276 N16 Sn128 Te128 Mg64"
_cell_length_a       49.6356
_cell_length_b       49.6368
_cell_length_c       4.73709
_cell_angle_alpha    90.1192
_cell_angle_beta     90.3678
_cell_angle_gamma    90.072

_symmetry_space_group_name_H-M    'P1'
_space_group_IT_number       1

loop_
  _space_group_symop_operation_xyz
  'x, y, z'

loop_
  _atom_site_type_symbol
  _atom_site_label
  _atom_site_symmetry_multiplicity
  _atom_site_fract_x
  _atom_site_fract_y
  _atom_site_fract_z
  _atom_site_occupancy
  H   H1        1.0  0.38959  0.79019  0.77032  1.0000
  H   H2        1.0  0.61298  0.71118  0.80655  1.0000
  H   H3        1.0  0.60943  0.29489  0.22499  1.0000
  H   H4        1.0  0.38730  0.21068  0.19595  1.0000
  H   H5        1.0  0.59635  0.21386  0.49564  1.0000
  H   H6        1.0  0.41007  0.28847  0.51165  1.0000
  H   H7        1.0  0.40709  0.71048  0.47781  1.0000
  H   H8        1.0  0.59116  0.78897  0.48890  1.0000
  H   H9        1.0  0.88982  0.28953  0.29549  1.0000
  H   H10       1.0  0.11260  0.20470  0.29027  1.0000
  H   H11       1.0  0.10877  0.79264  0.72416  1.0000
  H   H12       1.0  0.89068  0.70466  0.70994  1.0000
  H   H13       1.0  0.09096  0.71300  0.01521  1.0000
  H   H14       1.0  0.90036  0.78608  0.99118  1.0000
  H   H15       1.0  0.91038  0.21011  0.02186  1.0000
  H   H16       1.0  0.09830  0.28557  0.01900  1.0000
  H   H17       1.0  0.53686  0.34321  0.72701  1.0000
  H   H18       1.0  0.46217  0.15777  0.73290  1.0000
  H   H19       1.0  0.46061  0.84302  0.25695  1.0000
  H   H20       1.0  0.53837  0.65732  0.26768  1.0000
  H   H21       1.0  0.45957  0.63853  0.95027  1.0000
  H   H22       1.0  0.54013  0.86079  0.96439  1.0000
  H   H23       1.0  0.54158  0.13957  0.03425  1.0000
  H   H24       1.0  0.45845  0.36202  0.04345  1.0000
  H   H25       1.0  0.03356  0.84736  0.25345  1.0000
  H   H26       1.0  0.96133  0.65948  0.22808  1.0000
  H   H27       1.0  0.96546  0.34458  0.74257  1.0000
  H   H28       1.0  0.04002  0.15852  0.78033  1.0000
  H   H29       1.0  0.96237  0.13570  0.45824  1.0000
  H   H30       1.0  0.04664  0.35985  0.49252  1.0000
  H   H31       1.0  0.03943  0.63818  0.54831  1.0000
  H   H32       1.0  0.95252  0.85727  0.53568  1.0000
  H   H33       1.0  0.64701  0.21082  0.05028  1.0000
  H   H34       1.0  0.35162  0.29933  0.94793  1.0000
  H   H35       1.0  0.34856  0.70280  0.02533  1.0000
  H   H36       1.0  0.65007  0.79891  0.05482  1.0000
  H   H37       1.0  0.34317  0.80543  0.17354  1.0000
  H   H38       1.0  0.66075  0.69768  0.21989  1.0000
  H   H39       1.0  0.65361  0.31344  0.83047  1.0000
  H   H40       1.0  0.33968  0.19777  0.78518  1.0000
  H   H41       1.0  0.14965  0.70510  0.46305  1.0000
  H   H42       1.0  0.84047  0.78872  0.42340  1.0000
  H   H43       1.0  0.85899  0.19816  0.50304  1.0000
  H   H44       1.0  0.14827  0.28955  0.46598  1.0000
  H   H45       1.0  0.84186  0.30136  0.70334  1.0000
  H   H46       1.0  0.15712  0.18706  0.69106  1.0000
  H   H47       1.0  0.15521  0.80800  0.32060  1.0000
  H   H48       1.0  0.83980  0.68772  0.24659  1.0000
  H   H49       1.0  0.67319  0.20636  0.60817  1.0000
  H   H50       1.0  0.35043  0.33509  0.61568  1.0000
  H   H51       1.0  0.34849  0.69456  0.59133  1.0000
  H   H52       1.0  0.65200  0.83476  0.38683  1.0000
  H   H53       1.0  0.32040  0.80418  0.62227  1.0000
  H   H54       1.0  0.68332  0.70289  0.67509  1.0000
  H   H55       1.0  0.67636  0.31707  0.37436  1.0000
  H   H56       1.0  0.31703  0.20277  0.33115  1.0000
  H   H57       1.0  0.15260  0.66927  0.13094  1.0000
  H   H58       1.0  0.83581  0.82466  0.10093  1.0000
  H   H59       1.0  0.83907  0.18265  0.93409  1.0000
  H   H60       1.0  0.17442  0.29476  0.90877  1.0000
  H   H61       1.0  0.83078  0.33067  0.13923  1.0000
  H   H62       1.0  0.17963  0.18335  0.15101  1.0000
  H   H63       1.0  0.17811  0.80596  0.87174  1.0000
  H   H64       1.0  0.83908  0.69063  0.66404  1.0000
  H   H65       1.0  0.64405  0.19907  0.41047  1.0000
  H   H66       1.0  0.35349  0.30747  0.37736  1.0000
  H   H67       1.0  0.37714  0.67493  0.50964  1.0000
  H   H68       1.0  0.64849  0.80724  0.62447  1.0000
  H   H69       1.0  0.34968  0.81026  0.82582  1.0000
  H   H70       1.0  0.65492  0.69311  0.87315  1.0000
  H   H71       1.0  0.64617  0.31795  0.17985  1.0000
  H   H72       1.0  0.34539  0.19304  0.13180  1.0000
  H   H73       1.0  0.14902  0.69690  0.89457  1.0000
  H   H74       1.0  0.83994  0.79696  0.86771  1.0000
  H   H75       1.0  0.86863  0.18863  0.13399  1.0000
  H   H76       1.0  0.14529  0.30147  0.10512  1.0000
  H   H77       1.0  0.81910  0.29678  0.15423  1.0000
  H   H78       1.0  0.14940  0.18227  0.34026  1.0000
  H   H79       1.0  0.14897  0.81256  0.66770  1.0000
  H   H80       1.0  0.86416  0.66550  0.70651  1.0000
  H   H81       1.0  0.65718  0.17450  0.65650  1.0000
  H   H82       1.0  0.38230  0.32633  0.47684  1.0000
  H   H83       1.0  0.34557  0.66676  0.35481  1.0000
  H   H84       1.0  0.62000  0.82652  0.52671  1.0000
  H   H85       1.0  0.33584  0.83649  0.60846  1.0000
  H   H86       1.0  0.67194  0.66886  0.65679  1.0000
  H   H87       1.0  0.65588  0.34617  0.39677  1.0000
  H   H88       1.0  0.32834  0.16880  0.34756  1.0000
  H   H89       1.0  0.12070  0.67704  0.98161  1.0000
  H   H90       1.0  0.86767  0.81841  0.94714  1.0000
  H   H91       1.0  0.86655  0.16035  0.89876  1.0000
  H   H92       1.0  0.15772  0.32620  0.85818  1.0000
  H   H93       1.0  0.84758  0.30625  0.35693  1.0000
  H   H94       1.0  0.15934  0.15415  0.12447  1.0000
  H   H95       1.0  0.16330  0.83855  0.88654  1.0000
  H   H96       1.0  0.83147  0.65978  0.84096  1.0000
  H   H97       1.0  0.62022  0.17115  0.01976  1.0000
  H   H98       1.0  0.38680  0.33365  0.03281  1.0000
  H   H99       1.0  0.38194  0.66679  0.94722  1.0000
  H   H100      1.0  0.61519  0.83359  0.97029  1.0000
  H   H101      1.0  0.37211  0.84492  0.25555  1.0000
  H   H102      1.0  0.63511  0.65644  0.30347  1.0000
  H   H103      1.0  0.62164  0.35028  0.75986  1.0000
  H   H104      1.0  0.36477  0.15627  0.70091  1.0000
  H   H105      1.0  0.11609  0.66928  0.54190  1.0000
  H   H106      1.0  0.87131  0.82710  0.52003  1.0000
  H   H107      1.0  0.89464  0.16593  0.49027  1.0000
  H   H108      1.0  0.12060  0.32900  0.50294  1.0000
  H   H109      1.0  0.86723  0.34286  0.78871  1.0000
  H   H110      1.0  0.12573  0.14954  0.75391  1.0000
  H   H111      1.0  0.12665  0.84745  0.23771  1.0000
  H   H112      1.0  0.87123  0.64950  0.25762  1.0000
  H   H113      1.0  0.60019  0.18335  0.73736  1.0000
  H   H114      1.0  0.41028  0.31507  0.82951  1.0000
  H   H115      1.0  0.40611  0.68394  0.15926  1.0000
  H   H116      1.0  0.59156  0.81501  0.17222  1.0000
  H   H117      1.0  0.39387  0.82634  0.48096  1.0000
  H   H118      1.0  0.61243  0.67307  0.53338  1.0000
  H   H119      1.0  0.60137  0.33039  0.53025  1.0000
  H   H120      1.0  0.38762  0.17257  0.47086  1.0000
  H   H121      1.0  0.09194  0.68646  0.33092  1.0000
  H   H122      1.0  0.89670  0.81193  0.31079  1.0000
  H   H123      1.0  0.91446  0.18362  0.74314  1.0000
  H   H124      1.0  0.09987  0.31467  0.76606  1.0000
  H   H125      1.0  0.88993  0.32653  0.02300  1.0000
  H   H126      1.0  0.10490  0.16907  0.97797  1.0000
  H   H127      1.0  0.10489  0.82911  0.00870  1.0000
  H   H128      1.0  0.89497  0.66744  0.05150  1.0000
  H   H129      1.0  0.59849  0.19904  0.07200  1.0000
  H   H130      1.0  0.39894  0.30217  0.15634  1.0000
  H   H131      1.0  0.39601  0.69773  0.83050  1.0000
  H   H132      1.0  0.60298  0.80208  0.84550  1.0000
  H   H133      1.0  0.39100  0.81784  0.11828  1.0000
  H   H134      1.0  0.61365  0.68187  0.17094  1.0000
  H   H135      1.0  0.60488  0.32157  0.89089  1.0000
  H   H136      1.0  0.38663  0.18148  0.83328  1.0000
  H   H137      1.0  0.10227  0.70028  0.65998  1.0000
  H   H138      1.0  0.88745  0.79702  0.63536  1.0000
  H   H139      1.0  0.90814  0.19816  0.41132  1.0000
  H   H140      1.0  0.10038  0.30043  0.42507  1.0000
  H   H141      1.0  0.88890  0.31747  0.66089  1.0000
  H   H142      1.0  0.10864  0.17793  0.61856  1.0000
  H   H143      1.0  0.10736  0.82046  0.37111  1.0000
  H   H144      1.0  0.88783  0.67789  0.40363  1.0000
  H   H145      1.0  0.44562  0.41502  0.51537  1.0000
  H   H146      1.0  0.55693  0.09327  0.44165  1.0000
  H   H147      1.0  0.55556  0.90753  0.55634  1.0000
  H   H148      1.0  0.44690  0.58558  0.47655  1.0000
  H   H149      1.0  0.54576  0.59824  0.71088  1.0000
  H   H150      1.0  0.45315  0.90203  0.69988  1.0000
  H   H151      1.0  0.45399  0.09924  0.28531  1.0000
  H   H152      1.0  0.54401  0.40274  0.29031  1.0000
  H   H153      1.0  0.93272  0.90316  0.95589  1.0000
  H   H154      1.0  0.05295  0.59049  0.95643  1.0000
  H   H155      1.0  0.06293  0.40470  0.09717  1.0000
  H   H156      1.0  0.94993  0.08738  0.04589  1.0000
  H   H157      1.0  0.05031  0.09955  0.21726  1.0000
  H   H158      1.0  0.95995  0.39432  0.29950  1.0000
  H   H159      1.0  0.95163  0.60069  0.78764  1.0000
  H   H160      1.0  0.03591  0.90631  0.80603  1.0000
  H   H161      1.0  0.41930  0.36138  0.68588  1.0000
  H   H162      1.0  0.57793  0.14372  0.75152  1.0000
  H   H163      1.0  0.59499  0.87881  0.48134  1.0000
  H   H164      1.0  0.42069  0.63925  0.30337  1.0000
  H   H165      1.0  0.56524  0.65562  0.58237  1.0000
  H   H166      1.0  0.43468  0.84420  0.57422  1.0000
  H   H167      1.0  0.43556  0.15696  0.41416  1.0000
  H   H168      1.0  0.56257  0.34494  0.41031  1.0000
  H   H169      1.0  0.91694  0.85020  0.24594  1.0000
  H   H170      1.0  0.07767  0.63871  0.27689  1.0000
  H   H171      1.0  0.08176  0.35308  0.80044  1.0000
  H   H172      1.0  0.90815  0.11199  0.96393  1.0000
  H   H173      1.0  0.06552  0.15839  0.10359  1.0000
  H   H174      1.0  0.93471  0.34630  0.98567  1.0000
  H   H175      1.0  0.93565  0.65932  0.90491  1.0000
  H   H176      1.0  0.06061  0.85126  0.94588  1.0000
  H   H177      1.0  0.43121  0.36753  0.33722  1.0000
  H   H178      1.0  0.56931  0.14137  0.38861  1.0000
  H   H179      1.0  0.57670  0.85699  0.25321  1.0000
  H   H180      1.0  0.43261  0.63290  0.65369  1.0000
  H   H181      1.0  0.55119  0.64564  0.90929  1.0000
  H   H182      1.0  0.44820  0.85492  0.90270  1.0000
  H   H183      1.0  0.44923  0.14660  0.08652  1.0000
  H   H184      1.0  0.54930  0.35598  0.08279  1.0000
  H   H185      1.0  0.92475  0.85461  0.88424  1.0000
  H   H186      1.0  0.06889  0.63753  0.91371  1.0000
  H   H187      1.0  0.07279  0.35640  0.15970  1.0000
  H   H188      1.0  0.92398  0.13501  0.73138  1.0000
  H   H189      1.0  0.05320  0.14629  0.42875  1.0000
  H   H190      1.0  0.95039  0.34531  0.32103  1.0000
  H   H191      1.0  0.94830  0.64752  0.57910  1.0000
  H   H192      1.0  0.04543  0.85905  0.61615  1.0000
  H   H193      1.0  0.40449  0.38698  0.47464  1.0000
  H   H194      1.0  0.59630  0.12211  0.52449  1.0000
  H   H195      1.0  0.56794  0.85961  0.61451  1.0000
  H   H196      1.0  0.40589  0.61350  0.51105  1.0000
  H   H197      1.0  0.58207  0.63140  0.79432  1.0000
  H   H198      1.0  0.41712  0.86835  0.77972  1.0000
  H   H199      1.0  0.41823  0.13281  0.20365  1.0000
  H   H200      1.0  0.58033  0.36931  0.20951  1.0000
  H   H201      1.0  0.89617  0.87062  0.02786  1.0000
  H   H202      1.0  0.09428  0.61602  0.04680  1.0000
  H   H203      1.0  0.10099  0.37408  0.02979  1.0000
  H   H204      1.0  0.93318  0.13424  0.09319  1.0000
  H   H205      1.0  0.08489  0.13499  0.30325  1.0000
  H   H206      1.0  0.92161  0.36584  0.26555  1.0000
  H   H207      1.0  0.91685  0.63552  0.70323  1.0000
  H   H208      1.0  0.07485  0.87668  0.73013  1.0000
  H   H209      1.0  0.41872  0.42437  0.91598  1.0000
  H   H210      1.0  0.58786  0.08610  0.87904  1.0000
  H   H211      1.0  0.55421  0.93011  0.10596  1.0000
  H   H212      1.0  0.41992  0.57624  0.07258  1.0000
  H   H213      1.0  0.58193  0.59493  0.38402  1.0000
  H   H214      1.0  0.41726  0.90513  0.36789  1.0000
  H   H215      1.0  0.41837  0.09595  0.61566  1.0000
  H   H216      1.0  0.58049  0.40567  0.61715  1.0000
  H   H217      1.0  0.90135  0.90605  0.39282  1.0000
  H   H218      1.0  0.08170  0.57905  0.39402  1.0000
  H   H219      1.0  0.09563  0.40841  0.66550  1.0000
  H   H220      1.0  0.92102  0.07586  0.60725  1.0000
  H   H221      1.0  0.08659  0.09839  0.89332  1.0000
  H   H222      1.0  0.95490  0.42043  0.85761  1.0000
  H   H223      1.0  0.94319  0.60245  0.35682  1.0000
  H   H224      1.0  0.07161  0.91214  0.13702  1.0000
  H   H225      1.0  0.44710  0.41110  0.10138  1.0000
  H   H226      1.0  0.55562  0.07055  0.89227  1.0000
  H   H227      1.0  0.56016  0.90081  0.90457  1.0000
  H   H228      1.0  0.44834  0.58951  0.89052  1.0000
  H   H229      1.0  0.55407  0.59777  0.14716  1.0000
  H   H230      1.0  0.44474  0.90121  0.13179  1.0000
  H   H231      1.0  0.44591  0.09998  0.85464  1.0000
  H   H232      1.0  0.55287  0.40275  0.85348  1.0000
  H   H233      1.0  0.93179  0.92472  0.42642  1.0000
  H   H234      1.0  0.04763  0.56784  0.40791  1.0000
  H   H235      1.0  0.06588  0.42786  0.64412  1.0000
  H   H236      1.0  0.95517  0.06502  0.59248  1.0000
  H   H237      1.0  0.05908  0.10077  0.65195  1.0000
  H   H238      1.0  0.94878  0.39118  0.65765  1.0000
  H   H239      1.0  0.92393  0.63087  0.25865  1.0000
  H   H240      1.0  0.04301  0.90982  0.35803  1.0000
  H   H241      1.0  0.41882  0.39027  0.02457  1.0000
  H   H242      1.0  0.56159  0.09991  0.09419  1.0000
  H   H243      1.0  0.58649  0.91474  0.12209  1.0000
  H   H244      1.0  0.42013  0.61035  0.96406  1.0000
  H   H245      1.0  0.57386  0.62643  0.22920  1.0000
  H   H246      1.0  0.42463  0.87310  0.22142  1.0000
  H   H247      1.0  0.42578  0.12801  0.76236  1.0000
  H   H248      1.0  0.57245  0.37411  0.77015  1.0000
  H   H249      1.0  0.92883  0.89413  0.60621  1.0000
  H   H250      1.0  0.05755  0.59612  0.61077  1.0000
  H   H251      1.0  0.06774  0.39793  0.44644  1.0000
  H   H252      1.0  0.94508  0.09330  0.39265  1.0000
  H   H253      1.0  0.07762  0.12993  0.74574  1.0000
  H   H254      1.0  0.92365  0.40323  0.90221  1.0000
  H   H255      1.0  0.91577  0.59887  0.11544  1.0000
  H   H256      1.0  0.06422  0.88134  0.30935  1.0000
  H   H257      1.0  0.51952  0.59579  0.98498  1.0000
  H   H258      1.0  0.47979  0.90270  0.98235  1.0000
  H   H259      1.0  0.48087  0.09833  0.00751  1.0000
  H   H260      1.0  0.51781  0.40444  0.01248  1.0000
  H   H261      1.0  0.02290  0.09886  0.49615  1.0000
  H   H262      1.0  0.98118  0.42814  0.13932  1.0000
  H   H263      1.0  0.97960  0.60055  0.51120  1.0000
  H   H264      1.0  0.01036  0.90081  0.53498  1.0000
  H   H265      1.0  0.34777  0.72963  0.74445  1.0000
  H   H266      1.0  0.65097  0.77100  0.77675  1.0000
  H   H267      1.0  0.67995  0.23296  0.88664  1.0000
  H   H268      1.0  0.35056  0.27161  0.22628  1.0000
  H   H269      1.0  0.85097  0.22715  0.26498  1.0000
  H   H270      1.0  0.18151  0.26809  0.62578  1.0000
  H   H271      1.0  0.15007  0.73217  0.74579  1.0000
  H   H272      1.0  0.84534  0.76380  0.69742  1.0000
  C   C1        1.0  0.36718  0.77680  0.41069  1.0000
  C   C2        1.0  0.63485  0.72493  0.44835  1.0000
  C   C3        1.0  0.63142  0.28297  0.59192  1.0000
  C   C4        1.0  0.36585  0.22474  0.55616  1.0000
  C   C5        1.0  0.62626  0.23548  0.72495  1.0000
  C   C6        1.0  0.37612  0.27111  0.70592  1.0000
  C   C7        1.0  0.37438  0.72964  0.27316  1.0000
  C   C8        1.0  0.62510  0.77122  0.29694  1.0000
  C   C9        1.0  0.86795  0.27447  0.93880  1.0000
  C   C10       1.0  0.13417  0.21703  0.92504  1.0000
  C   C11       1.0  0.13116  0.77925  0.08301  1.0000
  C   C12       1.0  0.86628  0.71650  0.05775  1.0000
  C   C13       1.0  0.12382  0.73209  0.21894  1.0000
  C   C14       1.0  0.86936  0.76415  0.19248  1.0000
  C   C15       1.0  0.87818  0.22786  0.79685  1.0000
  C   C16       1.0  0.12819  0.26441  0.79060  1.0000
  C   C17       1.0  0.38618  0.77345  0.62545  1.0000
  C   C18       1.0  0.61542  0.72765  0.65727  1.0000
  C   C19       1.0  0.61356  0.27829  0.36879  1.0000
  C   C20       1.0  0.38515  0.22722  0.34554  1.0000
  C   C21       1.0  0.60603  0.23335  0.52081  1.0000
  C   C22       1.0  0.39760  0.27049  0.51934  1.0000
  C   C23       1.0  0.39578  0.72917  0.46407  1.0000
  C   C24       1.0  0.60344  0.77089  0.48173  1.0000
  C   C25       1.0  0.88727  0.27250  0.15233  1.0000
  C   C26       1.0  0.11632  0.22137  0.14656  1.0000
  C   C27       1.0  0.11213  0.77592  0.86849  1.0000
  C   C28       1.0  0.88558  0.72118  0.85091  1.0000
  C   C29       1.0  0.10233  0.73168  0.02927  1.0000
  C   C30       1.0  0.89094  0.76638  0.00791  1.0000
  C   C31       1.0  0.89877  0.22849  0.99729  1.0000
  C   C32       1.0  0.10817  0.26620  0.99448  1.0000
  C   C33       1.0  0.51832  0.35482  0.71947  1.0000
  C   C34       1.0  0.48078  0.14635  0.72128  1.0000
  C   C35       1.0  0.47929  0.85441  0.26993  1.0000
  C   C36       1.0  0.51983  0.64568  0.27509  1.0000
  C   C37       1.0  0.47601  0.63537  0.09929  1.0000
  C   C38       1.0  0.52344  0.86418  0.10820  1.0000
  C   C39       1.0  0.52487  0.13636  0.88784  1.0000
  C   C40       1.0  0.47471  0.36511  0.89422  1.0000
  C   C41       1.0  0.01383  0.85668  0.23487  1.0000
  C   C42       1.0  0.97953  0.64737  0.22069  1.0000
  C   C43       1.0  0.98466  0.35469  0.77312  1.0000
  C   C44       1.0  0.02207  0.14600  0.78612  1.0000
  C   C45       1.0  0.97887  0.13353  0.60901  1.0000
  C   C46       1.0  0.02966  0.36343  0.63222  1.0000
  C   C47       1.0  0.02296  0.63570  0.39736  1.0000
  C   C48       1.0  0.96885  0.86222  0.39255  1.0000
  C   C49       1.0  0.51774  0.37655  0.53454  1.0000
  C   C50       1.0  0.48111  0.12488  0.53221  1.0000
  C   C51       1.0  0.47983  0.87599  0.45775  1.0000
  C   C52       1.0  0.51932  0.62405  0.46138  1.0000
  C   C53       1.0  0.47272  0.61573  0.30572  1.0000
  C   C54       1.0  0.52688  0.88331  0.32099  1.0000
  C   C55       1.0  0.52817  0.11734  0.67424  1.0000
  C   C56       1.0  0.47131  0.38480  0.68791  1.0000
  C   C57       1.0  0.01136  0.87791  0.04516  1.0000
  C   C58       1.0  0.97931  0.62582  0.03304  1.0000
  C   C59       1.0  0.98586  0.37475  0.97842  1.0000
  C   C60       1.0  0.02266  0.12439  0.97205  1.0000
  C   C61       1.0  0.97645  0.11403  0.81856  1.0000
  C   C62       1.0  0.03339  0.38141  0.85549  1.0000
  C   C63       1.0  0.02575  0.61638  0.18600  1.0000
  C   C64       1.0  0.96378  0.88112  0.18116  1.0000
  C   C65       1.0  0.63540  0.20843  0.84713  1.0000
  C   C66       1.0  0.36920  0.29963  0.81015  1.0000
  C   C67       1.0  0.36595  0.70157  0.16732  1.0000
  C   C68       1.0  0.63251  0.79955  0.19262  1.0000
  C   C69       1.0  0.35635  0.80534  0.36738  1.0000
  C   C70       1.0  0.64779  0.69721  0.41408  1.0000
  C   C71       1.0  0.64034  0.31226  0.63790  1.0000
  C   C72       1.0  0.35262  0.19713  0.59096  1.0000
  C   C73       1.0  0.13219  0.70395  0.32190  1.0000
  C   C74       1.0  0.85813  0.79143  0.29060  1.0000
  C   C75       1.0  0.87308  0.19893  0.68576  1.0000
  C   C76       1.0  0.13663  0.29166  0.66753  1.0000
  C   C77       1.0  0.85479  0.30208  0.89918  1.0000
  C   C78       1.0  0.14367  0.18792  0.88049  1.0000
  C   C79       1.0  0.14214  0.80778  0.12574  1.0000
  C   C80       1.0  0.85629  0.68769  0.09325  1.0000
  C   C81       1.0  0.65365  0.19613  0.62324  1.0000
  C   C82       1.0  0.36318  0.31800  0.55475  1.0000
  C   C83       1.0  0.35854  0.68361  0.42080  1.0000
  C   C84       1.0  0.63893  0.81790  0.44785  1.0000
  C   C85       1.0  0.33973  0.81472  0.61634  1.0000
  C   C86       1.0  0.66543  0.68999  0.66481  1.0000
  C   C87       1.0  0.65548  0.32405  0.38734  1.0000
  C   C88       1.0  0.33491  0.18992  0.34022  1.0000
  C   C89       1.0  0.13936  0.68594  0.06726  1.0000
  C   C90       1.0  0.84972  0.80865  0.03570  1.0000
  C   C91       1.0  0.86108  0.18166  0.92364  1.0000
  C   C92       1.0  0.15465  0.30452  0.89267  1.0000
  C   C93       1.0  0.83712  0.30948  0.14735  1.0000
  C   C94       1.0  0.15878  0.17626  0.13423  1.0000
  C   C95       1.0  0.15898  0.81685  0.87769  1.0000
  C   C96       1.0  0.84687  0.67534  0.80995  1.0000
  C   C97       1.0  0.61203  0.18943  0.92163  1.0000
  C   C98       1.0  0.39280  0.31331  0.96891  1.0000
  C   C99       1.0  0.38896  0.68674  0.01482  1.0000
  C   C100      1.0  0.60908  0.81327  0.03345  1.0000
  C   C101      1.0  0.37984  0.82468  0.30342  1.0000
  C   C102      1.0  0.62581  0.67594  0.35396  1.0000
  C   C103      1.0  0.61548  0.32959  0.70764  1.0000
  C   C104      1.0  0.37432  0.17565  0.65059  1.0000
  C   C105      1.0  0.10914  0.68922  0.47498  1.0000
  C   C106      1.0  0.87971  0.80780  0.45145  1.0000
  C   C107      1.0  0.89924  0.18594  0.57707  1.0000
  C   C108      1.0  0.11282  0.30995  0.58759  1.0000
  C   C109      1.0  0.87662  0.32345  0.84153  1.0000
  C   C110      1.0  0.11920  0.17013  0.80441  1.0000
  C   C111      1.0  0.11874  0.82729  0.18761  1.0000
  C   C112      1.0  0.87906  0.66965  0.20910  1.0000
  C   C113      1.0  0.44369  0.39773  0.65721  1.0000
  C   C114      1.0  0.55672  0.10646  0.63477  1.0000
  C   C115      1.0  0.55542  0.89427  0.36372  1.0000
  C   C116      1.0  0.44504  0.60286  0.33416  1.0000
  C   C117      1.0  0.54724  0.61558  0.57035  1.0000
  C   C118      1.0  0.45181  0.88452  0.56048  1.0000
  C   C119      1.0  0.45292  0.11665  0.42630  1.0000
  C   C120      1.0  0.54558  0.38524  0.42856  1.0000
  C   C121      1.0  0.93432  0.88965  0.14482  1.0000
  C   C122      1.0  0.05345  0.60342  0.15216  1.0000
  C   C123      1.0  0.06231  0.39145  0.90461  1.0000
  C   C124      1.0  0.94905  0.10042  0.85198  1.0000
  C   C125      1.0  0.05096  0.11716  0.07964  1.0000
  C   C126      1.0  0.95828  0.38267  0.09611  1.0000
  C   C127      1.0  0.95097  0.61830  0.92633  1.0000
  C   C128      1.0  0.03863  0.88921  0.94742  1.0000
  C   C129      1.0  0.42356  0.37706  0.52927  1.0000
  C   C130      1.0  0.57614  0.12993  0.57269  1.0000
  C   C131      1.0  0.57483  0.87091  0.43047  1.0000
  C   C132      1.0  0.42497  0.62351  0.45984  1.0000
  C   C133      1.0  0.56221  0.63853  0.72536  1.0000
  C   C134      1.0  0.43717  0.86156  0.71581  1.0000
  C   C135      1.0  0.43823  0.13974  0.27136  1.0000
  C   C136      1.0  0.56024  0.36244  0.27135  1.0000
  C   C137      1.0  0.91708  0.86468  0.07280  1.0000
  C   C138      1.0  0.07478  0.62534  0.09610  1.0000
  C   C139      1.0  0.08052  0.36723  0.97648  1.0000
  C   C140      1.0  0.92735  0.12180  0.91175  1.0000
  C   C141      1.0  0.06437  0.14064  0.24052  1.0000
  C   C142      1.0  0.94027  0.35845  0.16934  1.0000
  C   C143      1.0  0.93722  0.64163  0.76686  1.0000
  C   C144      1.0  0.05582  0.86768  0.79891  1.0000
  C   C145      1.0  0.43162  0.40662  0.94153  1.0000
  C   C146      1.0  0.56607  0.08992  0.88563  1.0000
  C   C147      1.0  0.56472  0.91080  0.11361  1.0000
  C   C148      1.0  0.43289  0.59397  0.04857  1.0000
  C   C149      1.0  0.56515  0.60791  0.31776  1.0000
  C   C150      1.0  0.43376  0.89170  0.30528  1.0000
  C   C151      1.0  0.43490  0.10942  0.67964  1.0000
  C   C152      1.0  0.56372  0.39268  0.68240  1.0000
  C   C153      1.0  0.92341  0.90443  0.40236  1.0000
  C   C154      1.0  0.06061  0.58567  0.40132  1.0000
  C   C155      1.0  0.07354  0.40720  0.65513  1.0000
  C   C156      1.0  0.94206  0.08272  0.60090  1.0000
  C   C157      1.0  0.06945  0.11091  0.82746  1.0000
  C   C158      1.0  0.94541  0.40049  0.87074  1.0000
  C   C159      1.0  0.93259  0.61196  0.17948  1.0000
  C   C160      1.0  0.05514  0.89887  0.20403  1.0000
  C   C161      1.0  0.33381  0.74507  0.81864  1.0000
  C   C162      1.0  0.66668  0.75779  0.86090  1.0000
  C   C163      1.0  0.67642  0.24907  0.03944  1.0000
  C   C164      1.0  0.33485  0.25806  0.14675  1.0000
  C   C165      1.0  0.83621  0.24150  0.34547  1.0000
  C   C166      1.0  0.17814  0.25169  0.47540  1.0000
  C   C167      1.0  0.16439  0.74733  0.67240  1.0000
  C   C168      1.0  0.83206  0.74693  0.64374  1.0000
  C   C169      1.0  0.40152  0.74985  0.65809  1.0000
  C   C170      1.0  0.59864  0.75038  0.67901  1.0000
  C   C171      1.0  0.59941  0.25384  0.33002  1.0000
  C   C172      1.0  0.40204  0.24988  0.32139  1.0000
  C   C173      1.0  0.90378  0.24974  0.18631  1.0000
  C   C174      1.0  0.10188  0.24561  0.18492  1.0000
  C   C175      1.0  0.09664  0.75237  0.83620  1.0000
  C   C176      1.0  0.89907  0.74593  0.82194  1.0000
  C   C177      1.0  0.36023  0.75475  0.22843  1.0000
  C   C178      1.0  0.64071  0.74692  0.26298  1.0000
  C   C179      1.0  0.63868  0.26125  0.77428  1.0000
  C   C180      1.0  0.36033  0.24686  0.74208  1.0000
  C   C181      1.0  0.86259  0.25218  0.75294  1.0000
  C   C182      1.0  0.14096  0.23886  0.74249  1.0000
  C   C183      1.0  0.13809  0.75717  0.26403  1.0000
  C   C184      1.0  0.85793  0.73771  0.24225  1.0000
  C   C185      1.0  0.49981  0.74981  0.37402  1.0000
  C   C186      1.0  0.50045  0.25055  0.62147  1.0000
  C   C187      1.0  0.00311  0.24945  0.88647  1.0000
  C   C188      1.0  0.99793  0.75067  0.12803  1.0000
  C   C189      1.0  0.49277  0.39107  0.49753  1.0000
  C   C190      1.0  0.50614  0.11052  0.49018  1.0000
  C   C191      1.0  0.50492  0.89026  0.50214  1.0000
  C   C192      1.0  0.49432  0.60949  0.49733  1.0000
  C   C193      1.0  0.98482  0.88928  0.99401  1.0000
  C   C194      1.0  0.00374  0.61043  0.99870  1.0000
  C   C195      1.0  0.01117  0.38788  0.03348  1.0000
  C   C196      1.0  0.99853  0.10853  0.00574  1.0000
  C   C197      1.0  0.49800  0.34912  0.91577  1.0000
  C   C198      1.0  0.50143  0.15197  0.91670  1.0000
  C   C199      1.0  0.49989  0.84863  0.07733  1.0000
  C   C200      1.0  0.49934  0.65132  0.07812  1.0000
  C   C201      1.0  0.99358  0.84883  0.42343  1.0000
  C   C202      1.0  0.00002  0.65220  0.42036  1.0000
  C   C203      1.0  0.00570  0.34863  0.58798  1.0000
  C   C204      1.0  0.00147  0.15055  0.58696  1.0000
  C   C205      1.0  0.50302  0.58296  0.91030  1.0000
  C   C206      1.0  0.49525  0.91670  0.90936  1.0000
  C   C207      1.0  0.49627  0.08424  0.08111  1.0000
  C   C208      1.0  0.50155  0.41749  0.08580  1.0000
  C   C209      1.0  0.00989  0.08296  0.41120  1.0000
  C   C210      1.0  0.99736  0.42521  0.29358  1.0000
  C   C211      1.0  0.99280  0.58474  0.59327  1.0000
  C   C212      1.0  0.99425  0.91482  0.59133  1.0000
  N   N1        1.0  0.33840  0.75917  0.04772  1.0000
  N   N2        1.0  0.66323  0.74383  0.09193  1.0000
  N   N3        1.0  0.65694  0.26605  0.99650  1.0000
  N   N4        1.0  0.33804  0.24385  0.91633  1.0000
  N   N5        1.0  0.84034  0.25553  0.57559  1.0000
  N   N6        1.0  0.15908  0.23429  0.52126  1.0000
  N   N7        1.0  0.16007  0.76145  0.44362  1.0000
  N   N8        1.0  0.83726  0.73148  0.42998  1.0000
  N   N9        1.0  0.48938  0.58811  0.67932  1.0000
  N   N10       1.0  0.50935  0.91215  0.68173  1.0000
  N   N11       1.0  0.51045  0.08866  0.31051  1.0000
  N   N12       1.0  0.48791  0.41251  0.31553  1.0000
  N   N13       1.0  0.99582  0.08609  0.17893  1.0000
  N   N14       1.0  0.01506  0.40632  0.25503  1.0000
  N   N15       1.0  0.00686  0.58798  0.82544  1.0000
  N   N16       1.0  0.97883  0.91000  0.80508  1.0000
  C  Sn1       1.0  0.27772  0.77958  0.54514  1.0000
  C   C213      1.0  0.27058  0.76609  0.29642  1.0000
  C  Sn2       1.0  0.28121  0.74066  0.23736  1.0000
  C  Sn3       1.0  0.29935  0.72846  0.43101  1.0000
  C   C214      1.0  0.30648  0.74195  0.67957  1.0000
  C  Sn4       1.0  0.29586  0.76738  0.73879  1.0000
  O  Te1       1.0  0.26684  0.80498  0.59987  1.0000
  O  Te2       1.0  0.27440  0.72777  0.98728  1.0000
  O  Te3       1.0  0.31023  0.70304  0.37606  1.0000
  O  Te4       1.0  0.30327  0.78046  0.98871  1.0000
  Mg  Mg1       1.0  0.29398  0.69325  0.00719  1.0000
  Mg  Mg2       1.0  0.28308  0.81478  0.96909  1.0000
  C  Sn5       1.0  0.73038  0.73357  0.63550  1.0000
  C   C215      1.0  0.73667  0.74827  0.39338  1.0000
  C  Sn6       1.0  0.72114  0.77053  0.31550  1.0000
  C  Sn7       1.0  0.69887  0.77827  0.48320  1.0000
  C   C216      1.0  0.69259  0.76357  0.72517  1.0000
  C  Sn8       1.0  0.70811  0.74131  0.80320  1.0000
  O  Te5       1.0  0.74618  0.71138  0.70937  1.0000
  O  Te6       1.0  0.72782  0.78491  0.07247  1.0000
  O  Te7       1.0  0.68307  0.80047  0.40911  1.0000
  O  Te8       1.0  0.70083  0.72674  0.04609  1.0000
  Mg  Mg3       1.0  0.70022  0.81365  0.05939  1.0000
  Mg  Mg4       1.0  0.72843  0.69800  0.05945  1.0000
  C  Sn9       1.0  0.73657  0.22858  0.36151  1.0000
  C   C217      1.0  0.74132  0.24458  0.59984  1.0000
  C  Sn10      1.0  0.72170  0.26257  0.69398  1.0000
  C  Sn11      1.0  0.69680  0.26462  0.54696  1.0000
  C   C218      1.0  0.69206  0.24862  0.30882  1.0000
  C  Sn12      1.0  0.71167  0.23062  0.21448  1.0000
  O  Te9       1.0  0.75647  0.21073  0.27117  1.0000
  O  Te10      1.0  0.72691  0.27836  0.93273  1.0000
  O  Te11      1.0  0.67690  0.28249  0.63751  1.0000
  O  Te12      1.0  0.70708  0.21504  0.97593  1.0000
  Mg  Mg5       1.0  0.69348  0.29969  0.97366  1.0000
  Mg  Mg6       1.0  0.74049  0.19369  0.93490  1.0000
  C  Sn13      1.0  0.27183  0.23400  0.39769  1.0000
  C   C219      1.0  0.26625  0.24922  0.63879  1.0000
  C  Sn14      1.0  0.28198  0.27168  0.70719  1.0000
  C  Sn15      1.0  0.30374  0.27910  0.53084  1.0000
  C   C220      1.0  0.30931  0.26389  0.28988  1.0000
  C  Sn16      1.0  0.29359  0.24142  0.22133  1.0000
  O  Te13      1.0  0.25584  0.21162  0.33338  1.0000
  O  Te14      1.0  0.27602  0.28658  0.94939  1.0000
  O  Te15      1.0  0.31974  0.30150  0.59536  1.0000
  O  Te16      1.0  0.30016  0.22673  0.97928  1.0000
  Mg  Mg7       1.0  0.30362  0.31541  0.94783  1.0000
  Mg  Mg8       1.0  0.27256  0.19791  0.98056  1.0000
  C  Sn17      1.0  0.77222  0.26637  0.11257  1.0000
  C   C221      1.0  0.76665  0.25186  0.86872  1.0000
  C  Sn18      1.0  0.78256  0.22995  0.78942  1.0000
  C  Sn19      1.0  0.80512  0.22258  0.95743  1.0000
  C   C222      1.0  0.81068  0.23709  0.20113  1.0000
  C  Sn20      1.0  0.79478  0.25900  0.28059  1.0000
  O  Te17      1.0  0.75604  0.28819  0.18784  1.0000
  O  Te18      1.0  0.77598  0.21556  0.54468  1.0000
  O  Te19      1.0  0.82130  0.20074  0.88195  1.0000
  O  Te20      1.0  0.80135  0.27338  0.52518  1.0000
  Mg  Mg9       1.0  0.80414  0.18739  0.53012  1.0000
  Mg  Mg10      1.0  0.77319  0.30154  0.54002  1.0000
  C  Sn21      1.0  0.20860  0.22765  0.02662  1.0000
  C   C223      1.0  0.20224  0.24551  0.24461  1.0000
  C  Sn22      1.0  0.21280  0.27161  0.24680  1.0000
  C  Sn23      1.0  0.23006  0.28004  0.02642  1.0000
  C   C224      1.0  0.23702  0.26238  0.80858  1.0000
  C  Sn24      1.0  0.22647  0.23628  0.80624  1.0000
  O  Te21      1.0  0.19781  0.20165  0.02869  1.0000
  O  Te22      1.0  0.20616  0.28910  0.46704  1.0000
  O  Te23      1.0  0.24085  0.30606  0.02451  1.0000
  O  Te24      1.0  0.23310  0.21879  0.58615  1.0000
  Mg  Mg11      1.0  0.22588  0.32250  0.37061  1.0000
  Mg  Mg12      1.0  0.21338  0.18540  0.68228  1.0000
  C  Sn25      1.0  0.21464  0.72968  0.16964  1.0000
  C   C225      1.0  0.23576  0.74796  0.13232  1.0000
  C  Sn26      1.0  0.23275  0.77102  0.96497  1.0000
  C  Sn27      1.0  0.20750  0.77573  0.83228  1.0000
  C   C226      1.0  0.18641  0.75747  0.86966  1.0000
  C  Sn28      1.0  0.18939  0.73439  0.03695  1.0000
  O  Te25      1.0  0.21871  0.70696  0.33787  1.0000
  O  Te26      1.0  0.25416  0.78900  0.93072  1.0000
  O  Te27      1.0  0.20345  0.79848  0.66395  1.0000
  O  Te28      1.0  0.16800  0.71642  0.07126  1.0000
  Mg  Mg13      1.0  0.23873  0.81706  0.68139  1.0000
  Mg  Mg14      1.0  0.18340  0.68836  0.32065  1.0000
  C  Sn29      1.0  0.79160  0.77595  0.90361  1.0000
  C   C227      1.0  0.80880  0.75387  0.87371  1.0000
  C  Sn30      1.0  0.80221  0.72907  0.99398  1.0000
  C  Sn31      1.0  0.77730  0.72608  0.14720  1.0000
  C   C228      1.0  0.76011  0.74815  0.17700  1.0000
  C  Sn32      1.0  0.76669  0.77296  0.05683  1.0000
  O  Te29      1.0  0.79860  0.80055  0.78158  1.0000
  O  Te30      1.0  0.81972  0.70729  0.96132  1.0000
  O  Te31      1.0  0.77031  0.70145  0.26926  1.0000
  O  Te32      1.0  0.74919  0.79473  0.08939  1.0000
  Mg  Mg15      1.0  0.80072  0.67769  0.16643  1.0000
  Mg  Mg16      1.0  0.76816  0.82433  0.88426  1.0000
  C  Sn33      1.0  0.43456  0.77204  0.07799  1.0000
  C   C229      1.0  0.42739  0.75358  0.87167  1.0000
  C  Sn34      1.0  0.44091  0.72903  0.84641  1.0000
  C  Sn35      1.0  0.46204  0.72281  0.03134  1.0000
  C   C230      1.0  0.46981  0.74146  0.23755  1.0000
  C  Sn36      1.0  0.45631  0.76601  0.26293  1.0000
  O  Te33      1.0  0.42076  0.79645  0.09943  1.0000
  O  Te34      1.0  0.43276  0.71070  0.63843  1.0000
  O  Te35      1.0  0.47584  0.69837  0.00974  1.0000
  O  Te36      1.0  0.46444  0.78433  0.47079  1.0000
  Mg  Mg17      1.0  0.45785  0.68014  0.69280  1.0000
  Mg  Mg18      1.0  0.43936  0.81489  0.41670  1.0000
  C  Sn37      1.0  0.55843  0.73787  0.30304  1.0000
  C   C231      1.0  0.53532  0.75374  0.27696  1.0000
  C  Sn38      1.0  0.53129  0.76967  0.03767  1.0000
  C  Sn39      1.0  0.55137  0.76992  0.81981  1.0000
  C   C232      1.0  0.57446  0.75405  0.84593  1.0000
  C  Sn40      1.0  0.57790  0.73791  0.08518  1.0000
  O  Te37      1.0  0.56204  0.72209  0.54410  1.0000
  O  Te38      1.0  0.50803  0.78539  0.01641  1.0000
  O  Te39      1.0  0.54774  0.78571  0.57864  1.0000
  O  Te40      1.0  0.60113  0.72220  0.10647  1.0000
  Mg  Mg19      1.0  0.51281  0.80368  0.64712  1.0000
  Mg  Mg20      1.0  0.59699  0.70410  0.47558  1.0000
  C  Sn41      1.0  0.56529  0.27464  0.91444  1.0000
  C   C233      1.0  0.57319  0.25601  0.11889  1.0000
  C  Sn42      1.0  0.56016  0.23121  0.14688  1.0000
  C  Sn43      1.0  0.53878  0.22488  0.96664  1.0000
  C   C234      1.0  0.53028  0.24330  0.76230  1.0000
  C  Sn44      1.0  0.54329  0.26811  0.73419  1.0000
  O  Te41      1.0  0.57861  0.29931  0.89020  1.0000
  O  Te42      1.0  0.56903  0.21311  0.35291  1.0000
  O  Te43      1.0  0.52546  0.20018  0.99104  1.0000
  O  Te44      1.0  0.53443  0.28619  0.52828  1.0000
  Mg  Mg21      1.0  0.54439  0.18204  0.30374  1.0000
  Mg  Mg22      1.0  0.55907  0.31727  0.57717  1.0000
  C  Sn45      1.0  0.43527  0.22729  0.90704  1.0000
  C   C235      1.0  0.42667  0.24575  0.11124  1.0000
  C  Sn46      1.0  0.44002  0.27042  0.13793  1.0000
  C  Sn47      1.0  0.46241  0.27678  0.95661  1.0000
  C   C236      1.0  0.47038  0.25813  0.75253  1.0000
  C  Sn48      1.0  0.45705  0.23344  0.72572  1.0000
  O  Te45      1.0  0.42163  0.20274  0.88412  1.0000
  O  Te46      1.0  0.43168  0.28875  0.34373  1.0000
  O  Te47      1.0  0.47605  0.30134  0.97970  1.0000
  O  Te48      1.0  0.46537  0.21512  0.52004  1.0000
  Mg  Mg23      1.0  0.45659  0.31952  0.29259  1.0000
  Mg  Mg24      1.0  0.44047  0.18436  0.57089  1.0000
  C  Sn49      1.0  0.96953  0.23317  0.41727  1.0000
  C   C237      1.0  0.97584  0.24926  0.65095  1.0000
  C  Sn50      1.0  0.95591  0.26466  0.78117  1.0000
  C  Sn51      1.0  0.92911  0.26395  0.67574  1.0000
  C   C238      1.0  0.92281  0.24785  0.44223  1.0000
  C  Sn52      1.0  0.94273  0.23245  0.31183  1.0000
  O  Te49      1.0  0.98978  0.21794  0.29042  1.0000
  O  Te50      1.0  0.96209  0.28041  0.01445  1.0000
  O  Te51      1.0  0.90886  0.27919  0.80280  1.0000
  O  Te52      1.0  0.93595  0.21651  0.07872  1.0000
  Mg  Mg25      1.0  0.92745  0.29755  0.11497  1.0000
  Mg  Mg26      1.0  0.97118  0.19955  0.97814  1.0000
  C  Sn53      1.0  0.03735  0.26571  0.41989  1.0000
  C   C239      1.0  0.03039  0.24954  0.64935  1.0000
  C  Sn54      1.0  0.04965  0.23308  0.77835  1.0000
  C  Sn55      1.0  0.07644  0.23279  0.67600  1.0000
  C   C240      1.0  0.08339  0.24896  0.44672  1.0000
  C  Sn56      1.0  0.06414  0.26542  0.31754  1.0000
  O  Te53      1.0  0.01777  0.28201  0.29419  1.0000
  O  Te54      1.0  0.04159  0.21689  0.00738  1.0000
  O  Te55      1.0  0.09602  0.21648  0.80192  1.0000
  O  Te56      1.0  0.07158  0.28142  0.08869  1.0000
  Mg  Mg27      1.0  0.07546  0.19809  0.10791  1.0000
  Mg  Mg28      1.0  0.03834  0.30043  0.98809  1.0000
  C  Sn57      1.0  0.05624  0.76421  0.20644  1.0000
  C   C241      1.0  0.03354  0.74768  0.22854  1.0000
  C  Sn58      1.0  0.02993  0.73152  0.46636  1.0000
  C  Sn59      1.0  0.04940  0.73189  0.68681  1.0000
  C   C242      1.0  0.07208  0.74842  0.66468  1.0000
  C  Sn60      1.0  0.07571  0.76459  0.42689  1.0000
  O  Te57      1.0  0.06006  0.78041  0.96678  1.0000
  O  Te58      1.0  0.00707  0.71515  0.48362  1.0000
  O  Te59      1.0  0.04618  0.71588  0.92658  1.0000
  O  Te60      1.0  0.09854  0.78095  0.40960  1.0000
  Mg  Mg29      1.0  0.01170  0.69699  0.85241  1.0000
  Mg  Mg30      1.0  0.09393  0.79913  0.04099  1.0000
  C  Sn61      1.0  0.93972  0.73634  0.19769  1.0000
  C   C243      1.0  0.96195  0.75350  0.22378  1.0000
  C  Sn62      1.0  0.96516  0.76966  0.46347  1.0000
  C  Sn63      1.0  0.94576  0.76863  0.68174  1.0000
  C   C244      1.0  0.92355  0.75148  0.65563  1.0000
  C  Sn64      1.0  0.92032  0.73532  0.41597  1.0000
  O  Te61      1.0  0.93753  0.72057  0.95623  1.0000
  O  Te62      1.0  0.98754  0.78666  0.48473  1.0000
  O  Te63      1.0  0.94858  0.78463  0.92333  1.0000
  O  Te64      1.0  0.89796  0.71833  0.39468  1.0000
  Mg  Mg31      1.0  0.98249  0.80452  0.85466  1.0000
  Mg  Mg32      1.0  0.90300  0.70044  0.02493  1.0000
  C  Sn65      1.0  0.52727  0.29236  0.26922  1.0000
  C   C245      1.0  0.50960  0.28462  0.48281  1.0000
  C  Sn66      1.0  0.48472  0.29741  0.51219  1.0000
  C  Sn67      1.0  0.47733  0.31837  0.32405  1.0000
  C   C246      1.0  0.49500  0.32610  0.11059  1.0000
  C  Sn68      1.0  0.51988  0.31332  0.08108  1.0000
  O  Te65      1.0  0.55204  0.27930  0.24377  1.0000
  O  Te66      1.0  0.46739  0.28932  0.72742  1.0000
  O  Te67      1.0  0.45254  0.33143  0.34968  1.0000
  O  Te68      1.0  0.53781  0.32160  0.86599  1.0000
  Mg  Mg33      1.0  0.43584  0.31322  0.67629  1.0000
  Mg  Mg34      1.0  0.56936  0.29770  0.91683  1.0000
  C  Sn69      1.0  0.47328  0.20935  0.26451  1.0000
  C   C247      1.0  0.49101  0.21678  0.48151  1.0000
  C  Sn70      1.0  0.51563  0.20353  0.51487  1.0000
  C  Sn71      1.0  0.52269  0.18241  0.32732  1.0000
  C   C248      1.0  0.50497  0.17499  0.11045  1.0000
  C  Sn72      1.0  0.48034  0.18823  0.07696  1.0000
  O  Te69      1.0  0.44877  0.22287  0.23510  1.0000
  O  Te70      1.0  0.53301  0.21131  0.73346  1.0000
  O  Te71      1.0  0.54722  0.16889  0.35691  1.0000
  O  Te72      1.0  0.46358  0.18066  0.85850  1.0000
  Mg  Mg35      1.0  0.56412  0.18681  0.68711  1.0000
  Mg  Mg36      1.0  0.43247  0.20516  0.90456  1.0000
  C  Sn73      1.0  0.51220  0.82217  0.54338  1.0000
  C   C249      1.0  0.49442  0.82939  0.75810  1.0000
  C  Sn74      1.0  0.47836  0.80990  0.88711  1.0000
  C  Sn75      1.0  0.48013  0.78261  0.79981  1.0000
  C   C250      1.0  0.49791  0.77540  0.58526  1.0000
  C  Sn76      1.0  0.51397  0.79488  0.45608  1.0000
  O  Te73      1.0  0.52805  0.84199  0.41738  1.0000
  O  Te74      1.0  0.46012  0.81741  0.10126  1.0000
  O  Te75      1.0  0.46426  0.76279  0.92602  1.0000
  O  Te76      1.0  0.53160  0.78718  0.24210  1.0000
  Mg  Mg37      1.0  0.44270  0.78305  0.20855  1.0000
  Mg  Mg38      1.0  0.54903  0.82152  0.13477  1.0000
  C  Sn77      1.0  0.51807  0.70272  0.93309  1.0000
  C   C251      1.0  0.50082  0.68047  0.92045  1.0000
  C  Sn78      1.0  0.48437  0.67624  0.68408  1.0000
  C  Sn79      1.0  0.48519  0.69462  0.45547  1.0000
  C   C252      1.0  0.50244  0.71685  0.46816  1.0000
  C  Sn80      1.0  0.51890  0.72110  0.70448  1.0000
  O  Te77      1.0  0.53373  0.70635  0.17148  1.0000
  O  Te78      1.0  0.46729  0.65386  0.67634  1.0000
  O  Te79      1.0  0.46891  0.69078  0.21699  1.0000
  O  Te80      1.0  0.53598  0.74346  0.71227  1.0000
  Mg  Mg39      1.0  0.44900  0.65730  0.30554  1.0000
  Mg  Mg40      1.0  0.55367  0.73983  0.08288  1.0000
  C  Sn81      1.0  0.98297  0.82214  0.95761  1.0000
  C   C253      1.0  0.00045  0.83005  0.74300  1.0000
  C  Sn82      1.0  0.01722  0.81121  0.61326  1.0000
  C  Sn83      1.0  0.01649  0.78388  0.69970  1.0000
  C   C254      1.0  0.99901  0.77598  0.91415  1.0000
  C  Sn84      1.0  0.98163  0.79461  0.04405  1.0000
  O  Te81      1.0  0.96577  0.84111  0.08435  1.0000
  O  Te82      1.0  0.03453  0.81961  0.39924  1.0000
  O  Te83      1.0  0.03310  0.76470  0.57276  1.0000
  O  Te84      1.0  0.96432  0.78622  0.25791  1.0000
  Mg  Mg41      1.0  0.05323  0.78597  0.29074  1.0000
  Mg  Mg42      1.0  0.94561  0.81984  0.36645  1.0000
  C  Sn85      1.0  0.97134  0.70914  0.76975  1.0000
  C   C255      1.0  0.98895  0.71675  0.98707  1.0000
  C  Sn86      1.0  0.01312  0.70360  0.02043  1.0000
  C  Sn87      1.0  0.02107  0.68281  0.83255  1.0000
  C   C256      1.0  0.00347  0.67521  0.61536  1.0000
  C  Sn88      1.0  0.97868  0.68815  0.58187  1.0000
  O  Te85      1.0  0.94667  0.72236  0.74035  1.0000
  O  Te86      1.0  0.03039  0.71156  0.23935  1.0000
  O  Te87      1.0  0.04577  0.66958  0.86213  1.0000
  O  Te88      1.0  0.96142  0.68020  0.36308  1.0000
  Mg  Mg43      1.0  0.06181  0.68745  0.19285  1.0000
  Mg  Mg44      1.0  0.93000  0.70430  0.40930  1.0000
  C  Sn89      1.0  0.97679  0.29110  0.24822  1.0000
  C   C257      1.0  0.99365  0.28373  0.02598  1.0000
  C  Sn90      1.0  0.01901  0.29684  0.98922  1.0000
  C  Sn91      1.0  0.02648  0.31733  0.17865  1.0000
  C   C258      1.0  0.00962  0.32469  0.40076  1.0000
  C  Sn92      1.0  0.98487  0.31180  0.43765  1.0000
  O  Te89      1.0  0.95214  0.27792  0.28096  1.0000
  O  Te90      1.0  0.03552  0.28913  0.76541  1.0000
  O  Te91      1.0  0.05115  0.33051  0.14573  1.0000
  O  Te92      1.0  0.96837  0.31949  0.66133  1.0000
  Mg  Mg45      1.0  0.06723  0.31305  0.80874  1.0000
  Mg  Mg46      1.0  0.93666  0.29557  0.61828  1.0000
  C  Sn93      1.0  0.02021  0.20166  0.44012  1.0000
  C   C259      1.0  0.00276  0.17957  0.42606  1.0000
  C  Sn94      1.0  0.98624  0.17566  0.18964  1.0000
  C  Sn95      1.0  0.98781  0.19439  0.96243  1.0000
  C   C260      1.0  0.00526  0.21645  0.97653  1.0000
  C  Sn96      1.0  0.02117  0.22019  0.21291  1.0000
  O  Te93      1.0  0.03655  0.20517  0.67853  1.0000
  O  Te94      1.0  0.96895  0.15343  0.18046  1.0000
  O  Te95      1.0  0.97146  0.19085  0.72392  1.0000
  O  Te96      1.0  0.03845  0.24239  0.22214  1.0000
  Mg  Mg47      1.0  0.95126  0.15750  0.81022  1.0000
  Mg  Mg48      1.0  0.05678  0.23854  0.59218  1.0000
  C  Sn97      1.0  0.50641  0.45993  0.48516  1.0000
  C   C261      1.0  0.48737  0.48034  0.52150  1.0000
  C  Sn98      1.0  0.47297  0.48234  0.77306  1.0000
  C  Sn99      1.0  0.47771  0.46356  0.99299  1.0000
  C   C262      1.0  0.49675  0.44316  0.95661  1.0000
  C  Sn100     1.0  0.51115  0.44115  0.70508  1.0000
  O  Te97      1.0  0.52057  0.45832  0.23190  1.0000
  O  Te98      1.0  0.45404  0.50292  0.80444  1.0000
  O  Te99      1.0  0.46292  0.46499  0.24637  1.0000
  O  Te100     1.0  0.53008  0.42059  0.67367  1.0000
  Mg  Mg49      1.0  0.43922  0.49656  0.18858  1.0000
  Mg  Mg50      1.0  0.54430  0.42673  0.28970  1.0000
  C  Sn101     1.0  0.47795  0.04745  0.68172  1.0000
  C   C263      1.0  0.49504  0.05686  0.89589  1.0000
  C  Sn102     1.0  0.52073  0.04586  0.93117  1.0000
  C  Sn103     1.0  0.52953  0.02502  0.74848  1.0000
  C   C264      1.0  0.51245  0.01562  0.53444  1.0000
  C  Sn104     1.0  0.48675  0.02661  0.49902  1.0000
  O  Te101     1.0  0.45236  0.05874  0.65031  1.0000
  O  Te102     1.0  0.53684  0.05539  0.14686  1.0000
  O  Te103     1.0  0.55515  0.01372  0.78006  1.0000
  O  Te104     1.0  0.47004  0.01689  0.28346  1.0000
  Mg  Mg51      1.0  0.56993  0.03356  0.10487  1.0000
  Mg  Mg52      1.0  0.43694  0.03871  0.32516  1.0000
  C  Sn105     1.0  0.47737  0.95369  0.30519  1.0000
  C   C265      1.0  0.49433  0.94409  0.09327  1.0000
  C  Sn106     1.0  0.52009  0.95495  0.06015  1.0000
  C  Sn107     1.0  0.52910  0.97582  0.24277  1.0000
  C   C266      1.0  0.51215  0.98540  0.45457  1.0000
  C  Sn108     1.0  0.48638  0.97456  0.48781  1.0000
  O  Te105     1.0  0.45170  0.94253  0.33446  1.0000
  O  Te106     1.0  0.53730  0.94524  0.84669  1.0000
  O  Te107     1.0  0.55480  0.98697  0.21333  1.0000
  O  Te108     1.0  0.46980  0.98446  0.70115  1.0000
  Mg  Mg53      1.0  0.57057  0.96691  0.89110  1.0000
  Mg  Mg54      1.0  0.43653  0.96279  0.65702  1.0000
  C  Sn109     1.0  0.51880  0.54545  0.30935  1.0000
  C   C267      1.0  0.50235  0.55563  0.09421  1.0000
  C  Sn110     1.0  0.47599  0.54622  0.06000  1.0000
  C  Sn111     1.0  0.46585  0.52624  0.24477  1.0000
  C   C268      1.0  0.48230  0.51607  0.45977  1.0000
  C  Sn112     1.0  0.50866  0.52546  0.49412  1.0000
  O  Te109     1.0  0.54508  0.55514  0.33966  1.0000
  O  Te110     1.0  0.46055  0.55690  0.84331  1.0000
  O  Te111     1.0  0.43955  0.51654  0.21428  1.0000
  O  Te112     1.0  0.52471  0.51500  0.71067  1.0000
  Mg  Mg55      1.0  0.42609  0.53727  0.88744  1.0000
  Mg  Mg56      1.0  0.55917  0.53462  0.66683  1.0000
  C  Sn113     1.0  0.97495  0.96864  0.11462  1.0000
  C   C269      1.0  0.99713  0.98600  0.10779  1.0000
  C  Sn114     1.0  0.02072  0.97965  0.25559  1.0000
  C  Sn115     1.0  0.02217  0.95543  0.41338  1.0000
  C   C270      1.0  0.00001  0.93809  0.42013  1.0000
  C  Sn116     1.0  0.97641  0.94443  0.27242  1.0000
  O  Te113     1.0  0.95219  0.97559  0.96526  1.0000
  O  Te114     1.0  0.04262  0.99732  0.24564  1.0000
  O  Te115     1.0  0.04557  0.94869  0.56281  1.0000
  O  Te116     1.0  0.95452  0.92677  0.28228  1.0000
  Mg  Mg57      1.0  0.07004  0.97924  0.48405  1.0000
  Mg  Mg58      1.0  0.92710  0.94481  0.04385  1.0000
  C  Sn117     1.0  0.00287  0.51491  0.45262  1.0000
  C   C271      1.0  0.98874  0.50962  0.20245  1.0000
  C  Sn118     1.0  0.97772  0.53072  0.04508  1.0000
  C  Sn119     1.0  0.98091  0.55768  0.13962  1.0000
  C   C272      1.0  0.99504  0.56295  0.38961  1.0000
  C  Sn120     1.0  0.00606  0.54186  0.54716  1.0000
  O  Te117     1.0  0.01372  0.49350  0.60655  1.0000
  O  Te118     1.0  0.96428  0.52513  0.79571  1.0000
  O  Te119     1.0  0.97066  0.57929  0.98544  1.0000
  O  Te120     1.0  0.02012  0.54764  0.79636  1.0000
  Mg  Mg59      1.0  0.95322  0.56117  0.65950  1.0000
  Mg  Mg60      1.0  0.03120  0.51163  0.93264  1.0000
  C  Sn121     1.0  0.96765  0.47575  0.70264  1.0000
  C   C273      1.0  0.98457  0.48130  0.93250  1.0000
  C  Sn122     1.0  0.01034  0.47010  0.94696  1.0000
  C  Sn123     1.0  0.01940  0.45300  0.72700  1.0000
  C   C274      1.0  0.00249  0.44746  0.49729  1.0000
  C  Sn124     1.0  0.97672  0.45865  0.48267  1.0000
  O  Te121     1.0  0.94197  0.48718  0.69256  1.0000
  O  Te122     1.0  0.02627  0.47573  0.17894  1.0000
  O  Te123     1.0  0.04511  0.44157  0.73725  1.0000
  O  Te124     1.0  0.96018  0.45283  0.25086  1.0000
  Mg  Mg61      1.0  0.05958  0.45535  0.09661  1.0000
  Mg  Mg62      1.0  0.92687  0.47321  0.33288  1.0000
  C  Sn125     1.0  0.03174  0.04747  0.81274  1.0000
  C   C275      1.0  0.01690  0.05435  0.57181  1.0000
  C  Sn126     1.0  0.99445  0.03911  0.49108  1.0000
  C  Sn127     1.0  0.98666  0.01654  0.65466  1.0000
  C   C276      1.0  0.00149  0.00968  0.89545  1.0000
  C  Sn128     1.0  0.02395  0.02490  0.97632  1.0000
  O  Te125     1.0  0.05412  0.06299  0.88951  1.0000
  O  Te126     1.0  0.97994  0.04637  0.24931  1.0000
  O  Te127     1.0  0.96427  0.00102  0.57768  1.0000
  O  Te128     1.0  0.03784  0.01745  0.21795  1.0000
  Mg  Mg63      1.0  0.95096  0.01896  0.23115  1.0000
  Mg  Mg64      1.0  0.06681  0.04485  0.23639  1.0000
