data_image0
_chemical_formula_structural       H336C308N16C2Sn2C2HTe2HMgC2Sn2C2HTe2HMgC2Sn2C2HTe2HMgC2Sn2C2HTe2HMgC2Sn2C2HTe2HMgC2Sn2C2HTe2HMgC2Sn2C2HTe2HMgC2Sn2C2HTe2HMgC2Sn2C2HTe2HMgC2Sn2C2HTe2HMgC2Sn2C2HTe2HMgC2Sn2C2HTe2HMgC2Sn2C2HTe2HMgC2Sn2C2HTe2HMgC2Sn2C2HTe2HMgC2Sn2C2HTe2HMg
_chemical_formula_sum              "H368 C372 N16 Sn32 Te32 Mg16"
_cell_length_a       49.6356
_cell_length_b       49.6368
_cell_length_c       4.73709
_cell_angle_alpha    90.1192
_cell_angle_beta     90.3678
_cell_angle_gamma    90.072

_symmetry_space_group_name_H-M    'P1'
_space_group_IT_number       1

loop_
  _space_group_symop_operation_xyz
  'x, y, z'

loop_
  _atom_site_type_symbol
  _atom_site_label
  _atom_site_symmetry_multiplicity
  _atom_site_fract_x
  _atom_site_fract_y
  _atom_site_fract_z
  _atom_site_occupancy
  H   H1        1.0  0.72105  0.28054  0.85353  1.0000
  H   H2        1.0  0.24796  0.22817  0.33720  1.0000
  H   H3        1.0  0.74850  0.20775  0.44793  1.0000
  H   H4        1.0  0.28412  0.28662  0.89899  1.0000
  H   H5        1.0  0.74857  0.27168  0.17941  1.0000
  H   H6        1.0  0.22191  0.21956  0.66683  1.0000
  H   H7        1.0  0.78362  0.21527  0.59309  1.0000
  H   H8        1.0  0.24897  0.29364  0.05516  1.0000
  H   H9        1.0  0.68451  0.28395  0.50534  1.0000
  H   H10       1.0  0.28907  0.22860  0.04530  1.0000
  H   H11       1.0  0.71331  0.21282  0.09011  1.0000
  H   H12       1.0  0.32446  0.28674  0.60790  1.0000
  H   H13       1.0  0.79092  0.27142  0.46032  1.0000
  H   H14       1.0  0.18612  0.21624  0.01734  1.0000
  H   H15       1.0  0.82511  0.21568  0.87083  1.0000
  H   H16       1.0  0.21453  0.28859  0.41591  1.0000
  H   H17       1.0  0.38959  0.79019  0.77032  1.0000
  H   H18       1.0  0.61298  0.71118  0.80655  1.0000
  H   H19       1.0  0.60943  0.29489  0.22499  1.0000
  H   H20       1.0  0.38730  0.21068  0.19595  1.0000
  H   H21       1.0  0.59635  0.21386  0.49564  1.0000
  H   H22       1.0  0.41007  0.28847  0.51165  1.0000
  H   H23       1.0  0.40709  0.71048  0.47781  1.0000
  H   H24       1.0  0.59116  0.78897  0.48890  1.0000
  H   H25       1.0  0.88982  0.28953  0.29549  1.0000
  H   H26       1.0  0.11260  0.20470  0.29027  1.0000
  H   H27       1.0  0.10877  0.79264  0.72416  1.0000
  H   H28       1.0  0.89068  0.70466  0.70994  1.0000
  H   H29       1.0  0.09096  0.71300  0.01521  1.0000
  H   H30       1.0  0.90036  0.78608  0.99118  1.0000
  H   H31       1.0  0.91038  0.21011  0.02186  1.0000
  H   H32       1.0  0.09830  0.28557  0.01900  1.0000
  H   H33       1.0  0.55773  0.78694  0.69023  1.0000
  H   H34       1.0  0.55940  0.21582  0.32114  1.0000
  H   H35       1.0  0.58800  0.28364  0.85002  1.0000
  H   H36       1.0  0.58854  0.71951  0.15712  1.0000
  H   H37       1.0  0.94513  0.21433  0.18801  1.0000
  H   H38       1.0  0.06243  0.28389  0.19540  1.0000
  H   H39       1.0  0.93775  0.78554  0.81215  1.0000
  H   H40       1.0  0.91066  0.71646  0.34312  1.0000
  H   H41       1.0  0.91448  0.28094  0.66643  1.0000
  H   H42       1.0  0.09019  0.21529  0.66248  1.0000
  H   H43       1.0  0.51798  0.78661  0.97601  1.0000
  H   H44       1.0  0.51990  0.21419  0.02458  1.0000
  H   H45       1.0  0.54718  0.28418  0.58577  1.0000
  H   H46       1.0  0.54775  0.71775  0.41887  1.0000
  H   H47       1.0  0.98457  0.21356  0.48419  1.0000
  H   H48       1.0  0.02319  0.28583  0.48764  1.0000
  H   H49       1.0  0.97775  0.78711  0.52669  1.0000
  H   H50       1.0  0.95130  0.71687  0.08038  1.0000
  H   H51       1.0  0.95550  0.28225  0.93299  1.0000
  H   H52       1.0  0.04964  0.21532  0.92536  1.0000
  H   H53       1.0  0.46745  0.70211  0.33131  1.0000
  H   H54       1.0  0.53686  0.73131  0.77453  1.0000
  H   H55       1.0  0.03145  0.70363  0.17032  1.0000
  H   H56       1.0  0.96159  0.73139  0.72785  1.0000
  H   H57       1.0  0.46880  0.66144  0.59648  1.0000
  H   H58       1.0  0.53689  0.69163  0.06335  1.0000
  H   H59       1.0  0.03098  0.66296  0.90123  1.0000
  H   H60       1.0  0.96215  0.69172  0.43960  1.0000
  H   H61       1.0  0.53686  0.34321  0.72701  1.0000
  H   H62       1.0  0.46217  0.15777  0.73290  1.0000
  H   H63       1.0  0.46061  0.84302  0.25695  1.0000
  H   H64       1.0  0.53837  0.65732  0.26768  1.0000
  H   H65       1.0  0.45957  0.63853  0.95027  1.0000
  H   H66       1.0  0.54013  0.86079  0.96439  1.0000
  H   H67       1.0  0.54158  0.13957  0.03425  1.0000
  H   H68       1.0  0.45845  0.36202  0.04345  1.0000
  H   H69       1.0  0.03356  0.84736  0.25345  1.0000
  H   H70       1.0  0.96133  0.65948  0.22808  1.0000
  H   H71       1.0  0.96546  0.34458  0.74257  1.0000
  H   H72       1.0  0.04002  0.15852  0.78033  1.0000
  H   H73       1.0  0.96237  0.13570  0.45824  1.0000
  H   H74       1.0  0.04664  0.35985  0.49252  1.0000
  H   H75       1.0  0.03943  0.63818  0.54831  1.0000
  H   H76       1.0  0.95252  0.85727  0.53568  1.0000
  H   H77       1.0  0.53216  0.95646  0.83677  1.0000
  H   H78       1.0  0.46257  0.54595  0.84757  1.0000
  H   H79       1.0  0.53077  0.56721  0.36542  1.0000
  H   H80       1.0  0.46687  0.93126  0.36485  1.0000
  H   H81       1.0  0.95872  0.93554  0.18255  1.0000
  H   H82       1.0  0.03172  0.43314  0.75723  1.0000
  H   H83       1.0  0.98111  0.03827  0.28464  1.0000
  H   H84       1.0  0.03773  0.07088  0.88233  1.0000
  H   H85       1.0  0.96096  0.46243  0.33730  1.0000
  H   H86       1.0  0.03229  0.95264  0.63008  1.0000
  H   H87       1.0  0.54196  0.99376  0.18150  1.0000
  H   H88       1.0  0.45196  0.50873  0.18313  1.0000
  H   H89       1.0  0.52378  0.52606  0.65228  1.0000
  H   H90       1.0  0.47144  0.97326  0.64678  1.0000
  H   H91       1.0  0.96713  0.97224  0.86553  1.0000
  H   H92       1.0  0.02867  0.46974  0.10447  1.0000
  H   H93       1.0  0.97911  0.99614  0.56158  1.0000
  H   H94       1.0  0.03696  0.02882  0.15412  1.0000
  H   H95       1.0  0.95627  0.49794  0.69211  1.0000
  H   H96       1.0  0.04029  0.99119  0.32001  1.0000
  H   H97       1.0  0.64701  0.21082  0.05028  1.0000
  H   H98       1.0  0.35162  0.29933  0.94793  1.0000
  H   H99       1.0  0.34856  0.70280  0.02533  1.0000
  H   H100      1.0  0.65007  0.79891  0.05482  1.0000
  H   H101      1.0  0.34317  0.80543  0.17354  1.0000
  H   H102      1.0  0.66075  0.69768  0.21989  1.0000
  H   H103      1.0  0.65361  0.31344  0.83047  1.0000
  H   H104      1.0  0.33968  0.19777  0.78518  1.0000
  H   H105      1.0  0.14965  0.70510  0.46305  1.0000
  H   H106      1.0  0.84047  0.78872  0.42340  1.0000
  H   H107      1.0  0.85899  0.19816  0.50304  1.0000
  H   H108      1.0  0.14827  0.28955  0.46598  1.0000
  H   H109      1.0  0.84186  0.30136  0.70334  1.0000
  H   H110      1.0  0.15712  0.18706  0.69106  1.0000
  H   H111      1.0  0.15521  0.80800  0.32060  1.0000
  H   H112      1.0  0.83980  0.68772  0.24659  1.0000
  H   H113      1.0  0.67319  0.20636  0.60817  1.0000
  H   H114      1.0  0.35043  0.33509  0.61568  1.0000
  H   H115      1.0  0.34849  0.69456  0.59133  1.0000
  H   H116      1.0  0.65200  0.83476  0.38683  1.0000
  H   H117      1.0  0.32040  0.80418  0.62227  1.0000
  H   H118      1.0  0.68332  0.70289  0.67509  1.0000
  H   H119      1.0  0.67636  0.31707  0.37436  1.0000
  H   H120      1.0  0.31703  0.20277  0.33115  1.0000
  H   H121      1.0  0.15260  0.66927  0.13094  1.0000
  H   H122      1.0  0.83581  0.82466  0.10093  1.0000
  H   H123      1.0  0.83907  0.18265  0.93409  1.0000
  H   H124      1.0  0.17442  0.29476  0.90877  1.0000
  H   H125      1.0  0.83078  0.33067  0.13923  1.0000
  H   H126      1.0  0.17963  0.18335  0.15101  1.0000
  H   H127      1.0  0.17811  0.80596  0.87174  1.0000
  H   H128      1.0  0.83908  0.69063  0.66404  1.0000
  H   H129      1.0  0.64405  0.19907  0.41047  1.0000
  H   H130      1.0  0.35349  0.30747  0.37736  1.0000
  H   H131      1.0  0.37714  0.67493  0.50964  1.0000
  H   H132      1.0  0.64849  0.80724  0.62447  1.0000
  H   H133      1.0  0.34968  0.81026  0.82582  1.0000
  H   H134      1.0  0.65492  0.69311  0.87315  1.0000
  H   H135      1.0  0.64617  0.31795  0.17985  1.0000
  H   H136      1.0  0.34539  0.19304  0.13180  1.0000
  H   H137      1.0  0.14902  0.69690  0.89457  1.0000
  H   H138      1.0  0.83994  0.79696  0.86771  1.0000
  H   H139      1.0  0.86863  0.18863  0.13399  1.0000
  H   H140      1.0  0.14529  0.30147  0.10512  1.0000
  H   H141      1.0  0.81910  0.29678  0.15423  1.0000
  H   H142      1.0  0.14940  0.18227  0.34026  1.0000
  H   H143      1.0  0.14897  0.81256  0.66770  1.0000
  H   H144      1.0  0.86416  0.66550  0.70651  1.0000
  H   H145      1.0  0.65718  0.17450  0.65650  1.0000
  H   H146      1.0  0.38230  0.32633  0.47684  1.0000
  H   H147      1.0  0.34557  0.66676  0.35481  1.0000
  H   H148      1.0  0.62000  0.82652  0.52671  1.0000
  H   H149      1.0  0.33584  0.83649  0.60846  1.0000
  H   H150      1.0  0.67194  0.66886  0.65679  1.0000
  H   H151      1.0  0.65588  0.34617  0.39677  1.0000
  H   H152      1.0  0.32834  0.16880  0.34756  1.0000
  H   H153      1.0  0.12070  0.67704  0.98161  1.0000
  H   H154      1.0  0.86767  0.81841  0.94714  1.0000
  H   H155      1.0  0.86655  0.16035  0.89876  1.0000
  H   H156      1.0  0.15772  0.32620  0.85818  1.0000
  H   H157      1.0  0.84758  0.30625  0.35693  1.0000
  H   H158      1.0  0.15934  0.15415  0.12447  1.0000
  H   H159      1.0  0.16330  0.83855  0.88654  1.0000
  H   H160      1.0  0.83147  0.65978  0.84096  1.0000
  H   H161      1.0  0.62022  0.17115  0.01976  1.0000
  H   H162      1.0  0.38680  0.33365  0.03281  1.0000
  H   H163      1.0  0.38194  0.66679  0.94722  1.0000
  H   H164      1.0  0.61519  0.83359  0.97029  1.0000
  H   H165      1.0  0.37211  0.84492  0.25555  1.0000
  H   H166      1.0  0.63511  0.65644  0.30347  1.0000
  H   H167      1.0  0.62164  0.35028  0.75986  1.0000
  H   H168      1.0  0.36477  0.15627  0.70091  1.0000
  H   H169      1.0  0.11609  0.66928  0.54190  1.0000
  H   H170      1.0  0.87131  0.82710  0.52003  1.0000
  H   H171      1.0  0.89464  0.16593  0.49027  1.0000
  H   H172      1.0  0.12060  0.32900  0.50294  1.0000
  H   H173      1.0  0.86723  0.34286  0.78871  1.0000
  H   H174      1.0  0.12573  0.14954  0.75391  1.0000
  H   H175      1.0  0.12665  0.84745  0.23771  1.0000
  H   H176      1.0  0.87123  0.64950  0.25762  1.0000
  H   H177      1.0  0.60019  0.18335  0.73736  1.0000
  H   H178      1.0  0.41028  0.31507  0.82951  1.0000
  H   H179      1.0  0.40611  0.68394  0.15926  1.0000
  H   H180      1.0  0.59156  0.81501  0.17222  1.0000
  H   H181      1.0  0.39387  0.82634  0.48096  1.0000
  H   H182      1.0  0.61243  0.67307  0.53338  1.0000
  H   H183      1.0  0.60137  0.33039  0.53025  1.0000
  H   H184      1.0  0.38762  0.17257  0.47086  1.0000
  H   H185      1.0  0.09194  0.68646  0.33092  1.0000
  H   H186      1.0  0.89670  0.81193  0.31079  1.0000
  H   H187      1.0  0.91446  0.18362  0.74314  1.0000
  H   H188      1.0  0.09987  0.31467  0.76606  1.0000
  H   H189      1.0  0.88993  0.32653  0.02300  1.0000
  H   H190      1.0  0.10490  0.16907  0.97797  1.0000
  H   H191      1.0  0.10489  0.82911  0.00870  1.0000
  H   H192      1.0  0.89497  0.66744  0.05150  1.0000
  H   H193      1.0  0.59849  0.19904  0.07200  1.0000
  H   H194      1.0  0.39894  0.30217  0.15634  1.0000
  H   H195      1.0  0.39601  0.69773  0.83050  1.0000
  H   H196      1.0  0.60298  0.80208  0.84550  1.0000
  H   H197      1.0  0.39100  0.81784  0.11828  1.0000
  H   H198      1.0  0.61365  0.68187  0.17094  1.0000
  H   H199      1.0  0.60488  0.32157  0.89089  1.0000
  H   H200      1.0  0.38663  0.18148  0.83328  1.0000
  H   H201      1.0  0.10227  0.70028  0.65998  1.0000
  H   H202      1.0  0.88745  0.79702  0.63536  1.0000
  H   H203      1.0  0.90814  0.19816  0.41132  1.0000
  H   H204      1.0  0.10038  0.30043  0.42507  1.0000
  H   H205      1.0  0.88890  0.31747  0.66089  1.0000
  H   H206      1.0  0.10864  0.17793  0.61856  1.0000
  H   H207      1.0  0.10736  0.82046  0.37111  1.0000
  H   H208      1.0  0.88783  0.67789  0.40363  1.0000
  H   H209      1.0  0.44562  0.41502  0.51537  1.0000
  H   H210      1.0  0.55693  0.09327  0.44165  1.0000
  H   H211      1.0  0.55556  0.90753  0.55634  1.0000
  H   H212      1.0  0.44690  0.58558  0.47655  1.0000
  H   H213      1.0  0.54576  0.59824  0.71088  1.0000
  H   H214      1.0  0.45315  0.90203  0.69988  1.0000
  H   H215      1.0  0.45399  0.09924  0.28531  1.0000
  H   H216      1.0  0.54401  0.40274  0.29031  1.0000
  H   H217      1.0  0.93272  0.90316  0.95589  1.0000
  H   H218      1.0  0.05295  0.59049  0.95643  1.0000
  H   H219      1.0  0.06293  0.40470  0.09717  1.0000
  H   H220      1.0  0.94993  0.08738  0.04589  1.0000
  H   H221      1.0  0.05031  0.09955  0.21726  1.0000
  H   H222      1.0  0.95995  0.39432  0.29950  1.0000
  H   H223      1.0  0.95163  0.60069  0.78764  1.0000
  H   H224      1.0  0.03591  0.90631  0.80603  1.0000
  H   H225      1.0  0.41930  0.36138  0.68588  1.0000
  H   H226      1.0  0.57793  0.14372  0.75152  1.0000
  H   H227      1.0  0.59499  0.87881  0.48134  1.0000
  H   H228      1.0  0.42069  0.63925  0.30337  1.0000
  H   H229      1.0  0.56524  0.65562  0.58237  1.0000
  H   H230      1.0  0.43468  0.84420  0.57422  1.0000
  H   H231      1.0  0.43556  0.15696  0.41416  1.0000
  H   H232      1.0  0.56257  0.34494  0.41031  1.0000
  H   H233      1.0  0.91694  0.85020  0.24594  1.0000
  H   H234      1.0  0.07767  0.63871  0.27689  1.0000
  H   H235      1.0  0.08176  0.35308  0.80044  1.0000
  H   H236      1.0  0.90815  0.11199  0.96393  1.0000
  H   H237      1.0  0.06552  0.15839  0.10359  1.0000
  H   H238      1.0  0.93471  0.34630  0.98567  1.0000
  H   H239      1.0  0.93565  0.65932  0.90491  1.0000
  H   H240      1.0  0.06061  0.85126  0.94588  1.0000
  H   H241      1.0  0.43121  0.36753  0.33722  1.0000
  H   H242      1.0  0.56931  0.14137  0.38861  1.0000
  H   H243      1.0  0.57670  0.85699  0.25321  1.0000
  H   H244      1.0  0.43261  0.63290  0.65369  1.0000
  H   H245      1.0  0.55119  0.64564  0.90929  1.0000
  H   H246      1.0  0.44820  0.85492  0.90270  1.0000
  H   H247      1.0  0.44923  0.14660  0.08652  1.0000
  H   H248      1.0  0.54930  0.35598  0.08279  1.0000
  H   H249      1.0  0.92475  0.85461  0.88424  1.0000
  H   H250      1.0  0.06889  0.63753  0.91371  1.0000
  H   H251      1.0  0.07279  0.35640  0.15970  1.0000
  H   H252      1.0  0.92398  0.13501  0.73138  1.0000
  H   H253      1.0  0.05320  0.14629  0.42875  1.0000
  H   H254      1.0  0.95039  0.34531  0.32103  1.0000
  H   H255      1.0  0.94830  0.64752  0.57910  1.0000
  H   H256      1.0  0.04543  0.85905  0.61615  1.0000
  H   H257      1.0  0.40449  0.38698  0.47464  1.0000
  H   H258      1.0  0.59630  0.12211  0.52449  1.0000
  H   H259      1.0  0.56794  0.85961  0.61451  1.0000
  H   H260      1.0  0.40589  0.61350  0.51105  1.0000
  H   H261      1.0  0.58207  0.63140  0.79432  1.0000
  H   H262      1.0  0.41712  0.86835  0.77972  1.0000
  H   H263      1.0  0.41823  0.13281  0.20365  1.0000
  H   H264      1.0  0.58033  0.36931  0.20951  1.0000
  H   H265      1.0  0.89617  0.87062  0.02786  1.0000
  H   H266      1.0  0.09428  0.61602  0.04680  1.0000
  H   H267      1.0  0.10099  0.37408  0.02979  1.0000
  H   H268      1.0  0.93318  0.13424  0.09319  1.0000
  H   H269      1.0  0.08489  0.13499  0.30325  1.0000
  H   H270      1.0  0.92161  0.36584  0.26555  1.0000
  H   H271      1.0  0.91685  0.63552  0.70323  1.0000
  H   H272      1.0  0.07485  0.87668  0.73013  1.0000
  H   H273      1.0  0.41872  0.42437  0.91598  1.0000
  H   H274      1.0  0.58786  0.08610  0.87904  1.0000
  H   H275      1.0  0.55421  0.93011  0.10596  1.0000
  H   H276      1.0  0.41992  0.57624  0.07258  1.0000
  H   H277      1.0  0.58193  0.59493  0.38402  1.0000
  H   H278      1.0  0.41726  0.90513  0.36789  1.0000
  H   H279      1.0  0.41837  0.09595  0.61566  1.0000
  H   H280      1.0  0.58049  0.40567  0.61715  1.0000
  H   H281      1.0  0.90135  0.90605  0.39282  1.0000
  H   H282      1.0  0.08170  0.57905  0.39402  1.0000
  H   H283      1.0  0.09563  0.40841  0.66550  1.0000
  H   H284      1.0  0.92102  0.07586  0.60725  1.0000
  H   H285      1.0  0.08659  0.09839  0.89332  1.0000
  H   H286      1.0  0.95490  0.42043  0.85761  1.0000
  H   H287      1.0  0.94319  0.60245  0.35682  1.0000
  H   H288      1.0  0.07161  0.91214  0.13702  1.0000
  H   H289      1.0  0.44710  0.41110  0.10138  1.0000
  H   H290      1.0  0.55562  0.07055  0.89227  1.0000
  H   H291      1.0  0.56016  0.90081  0.90457  1.0000
  H   H292      1.0  0.44834  0.58951  0.89052  1.0000
  H   H293      1.0  0.55407  0.59777  0.14716  1.0000
  H   H294      1.0  0.44474  0.90121  0.13179  1.0000
  H   H295      1.0  0.44591  0.09998  0.85464  1.0000
  H   H296      1.0  0.55287  0.40275  0.85348  1.0000
  H   H297      1.0  0.93179  0.92472  0.42642  1.0000
  H   H298      1.0  0.04763  0.56784  0.40791  1.0000
  H   H299      1.0  0.06588  0.42786  0.64412  1.0000
  H   H300      1.0  0.95517  0.06502  0.59248  1.0000
  H   H301      1.0  0.05908  0.10077  0.65195  1.0000
  H   H302      1.0  0.94878  0.39118  0.65765  1.0000
  H   H303      1.0  0.92393  0.63087  0.25865  1.0000
  H   H304      1.0  0.04301  0.90982  0.35803  1.0000
  H   H305      1.0  0.41882  0.39027  0.02457  1.0000
  H   H306      1.0  0.56159  0.09991  0.09419  1.0000
  H   H307      1.0  0.58649  0.91474  0.12209  1.0000
  H   H308      1.0  0.42013  0.61035  0.96406  1.0000
  H   H309      1.0  0.57386  0.62643  0.22920  1.0000
  H   H310      1.0  0.42463  0.87310  0.22142  1.0000
  H   H311      1.0  0.42578  0.12801  0.76236  1.0000
  H   H312      1.0  0.57245  0.37411  0.77015  1.0000
  H   H313      1.0  0.92883  0.89413  0.60621  1.0000
  H   H314      1.0  0.05755  0.59612  0.61077  1.0000
  H   H315      1.0  0.06774  0.39793  0.44644  1.0000
  H   H316      1.0  0.94508  0.09330  0.39265  1.0000
  H   H317      1.0  0.07762  0.12993  0.74574  1.0000
  H   H318      1.0  0.92365  0.40323  0.90221  1.0000
  H   H319      1.0  0.91577  0.59887  0.11544  1.0000
  H   H320      1.0  0.06422  0.88134  0.30935  1.0000
  H   H321      1.0  0.51952  0.59579  0.98498  1.0000
  H   H322      1.0  0.47979  0.90270  0.98235  1.0000
  H   H323      1.0  0.48087  0.09833  0.00751  1.0000
  H   H324      1.0  0.51781  0.40444  0.01248  1.0000
  H   H325      1.0  0.02290  0.09886  0.49615  1.0000
  H   H326      1.0  0.98118  0.42814  0.13932  1.0000
  H   H327      1.0  0.97960  0.60055  0.51120  1.0000
  H   H328      1.0  0.01036  0.90081  0.53498  1.0000
  H   H329      1.0  0.34777  0.72963  0.74445  1.0000
  H   H330      1.0  0.65097  0.77100  0.77675  1.0000
  H   H331      1.0  0.67995  0.23296  0.88664  1.0000
  H   H332      1.0  0.35056  0.27161  0.22628  1.0000
  H   H333      1.0  0.85097  0.22715  0.26498  1.0000
  H   H334      1.0  0.18151  0.26809  0.62578  1.0000
  H   H335      1.0  0.15007  0.73217  0.74579  1.0000
  H   H336      1.0  0.84534  0.76380  0.69742  1.0000
  C   C1        1.0  0.71914  0.26519  0.69076  1.0000
  C   C2        1.0  0.26458  0.24128  0.39774  1.0000
  C   C3        1.0  0.73515  0.22500  0.46127  1.0000
  C   C4        1.0  0.28487  0.27353  0.71581  1.0000
  C   C5        1.0  0.76512  0.25892  0.11235  1.0000
  C   C6        1.0  0.22008  0.23523  0.82607  1.0000
  C   C7        1.0  0.78486  0.22808  0.77811  1.0000
  C   C8        1.0  0.23573  0.27623  0.04470  1.0000
  C   C9        1.0  0.69854  0.26738  0.49228  1.0000
  C   C10       1.0  0.28761  0.24144  0.23040  1.0000
  C   C11       1.0  0.71467  0.22734  0.26214  1.0000
  C   C12       1.0  0.30812  0.27329  0.55237  1.0000
  C   C13       1.0  0.78878  0.25870  0.27468  1.0000
  C   C14       1.0  0.19987  0.23308  0.02596  1.0000
  C   C15       1.0  0.80863  0.22829  0.93638  1.0000
  C   C16       1.0  0.21567  0.27389  0.24570  1.0000
  C   C17       1.0  0.36718  0.77680  0.41069  1.0000
  C   C18       1.0  0.63485  0.72493  0.44835  1.0000
  C   C19       1.0  0.63142  0.28297  0.59192  1.0000
  C   C20       1.0  0.36585  0.22474  0.55616  1.0000
  C   C21       1.0  0.62626  0.23548  0.72495  1.0000
  C   C22       1.0  0.37612  0.27111  0.70592  1.0000
  C   C23       1.0  0.37438  0.72964  0.27316  1.0000
  C   C24       1.0  0.62510  0.77122  0.29694  1.0000
  C   C25       1.0  0.86795  0.27447  0.93880  1.0000
  C   C26       1.0  0.13417  0.21703  0.92504  1.0000
  C   C27       1.0  0.13116  0.77925  0.08301  1.0000
  C   C28       1.0  0.86628  0.71650  0.05775  1.0000
  C   C29       1.0  0.12382  0.73209  0.21894  1.0000
  C   C30       1.0  0.86936  0.76415  0.19248  1.0000
  C   C31       1.0  0.87818  0.22786  0.79685  1.0000
  C   C32       1.0  0.12819  0.26441  0.79060  1.0000
  C   C33       1.0  0.38618  0.77345  0.62545  1.0000
  C   C34       1.0  0.61542  0.72765  0.65727  1.0000
  C   C35       1.0  0.61356  0.27829  0.36879  1.0000
  C   C36       1.0  0.38515  0.22722  0.34554  1.0000
  C   C37       1.0  0.60603  0.23335  0.52081  1.0000
  C   C38       1.0  0.39760  0.27049  0.51934  1.0000
  C   C39       1.0  0.39578  0.72917  0.46407  1.0000
  C   C40       1.0  0.60344  0.77089  0.48173  1.0000
  C   C41       1.0  0.88727  0.27250  0.15233  1.0000
  C   C42       1.0  0.11632  0.22137  0.14656  1.0000
  C   C43       1.0  0.11213  0.77592  0.86849  1.0000
  C   C44       1.0  0.88558  0.72118  0.85091  1.0000
  C   C45       1.0  0.10233  0.73168  0.02927  1.0000
  C   C46       1.0  0.89094  0.76638  0.00791  1.0000
  C   C47       1.0  0.89877  0.22849  0.99729  1.0000
  C   C48       1.0  0.10817  0.26620  0.99448  1.0000
  C   C49       1.0  0.55605  0.77151  0.85026  1.0000
  C   C50       1.0  0.55739  0.23082  0.15652  1.0000
  C   C51       1.0  0.57320  0.26829  0.89749  1.0000
  C   C52       1.0  0.57325  0.73447  0.10892  1.0000
  C   C53       1.0  0.94676  0.22930  0.35343  1.0000
  C   C54       1.0  0.06030  0.26878  0.35849  1.0000
  C   C55       1.0  0.94031  0.77023  0.65104  1.0000
  C   C56       1.0  0.92515  0.73221  0.39142  1.0000
  C   C57       1.0  0.92973  0.26603  0.61752  1.0000
  C   C58       1.0  0.07564  0.23091  0.61490  1.0000
  C   C59       1.0  0.53268  0.77097  0.00947  1.0000
  C   C60       1.0  0.53404  0.23036  0.99239  1.0000
  C   C61       1.0  0.54946  0.26796  0.73653  1.0000
  C   C62       1.0  0.54950  0.73397  0.26760  1.0000
  C   C63       1.0  0.97002  0.22930  0.51694  1.0000
  C   C64       1.0  0.03705  0.26944  0.52034  1.0000
  C   C65       1.0  0.96379  0.77078  0.49236  1.0000
  C   C66       1.0  0.94885  0.73296  0.23283  1.0000
  C   C67       1.0  0.95357  0.26623  0.77859  1.0000
  C   C68       1.0  0.05201  0.23152  0.77455  1.0000
  C   C69       1.0  0.48370  0.70026  0.48366  1.0000
  C   C70       1.0  0.52103  0.71677  0.74157  1.0000
  C   C71       1.0  0.01530  0.70146  0.01711  1.0000
  C   C72       1.0  0.97768  0.71718  0.76001  1.0000
  C   C73       1.0  0.48397  0.67658  0.64415  1.0000
  C   C74       1.0  0.52139  0.69343  0.90264  1.0000
  C   C75       1.0  0.01550  0.67778  0.85496  1.0000
  C   C76       1.0  0.97773  0.69386  0.59863  1.0000
  C   C77       1.0  0.51832  0.35482  0.71947  1.0000
  C   C78       1.0  0.48078  0.14635  0.72128  1.0000
  C   C79       1.0  0.47929  0.85441  0.26993  1.0000
  C   C80       1.0  0.51983  0.64568  0.27509  1.0000
  C   C81       1.0  0.47601  0.63537  0.09929  1.0000
  C   C82       1.0  0.52344  0.86418  0.10820  1.0000
  C   C83       1.0  0.52487  0.13636  0.88784  1.0000
  C   C84       1.0  0.47471  0.36511  0.89422  1.0000
  C   C85       1.0  0.01383  0.85668  0.23487  1.0000
  C   C86       1.0  0.97953  0.64737  0.22069  1.0000
  C   C87       1.0  0.98466  0.35469  0.77312  1.0000
  C   C88       1.0  0.02207  0.14600  0.78612  1.0000
  C   C89       1.0  0.97887  0.13353  0.60901  1.0000
  C   C90       1.0  0.02966  0.36343  0.63222  1.0000
  C   C91       1.0  0.02296  0.63570  0.39736  1.0000
  C   C92       1.0  0.96885  0.86222  0.39255  1.0000
  C   C93       1.0  0.51774  0.37655  0.53454  1.0000
  C   C94       1.0  0.48111  0.12488  0.53221  1.0000
  C   C95       1.0  0.47983  0.87599  0.45775  1.0000
  C   C96       1.0  0.51932  0.62405  0.46138  1.0000
  C   C97       1.0  0.47272  0.61573  0.30572  1.0000
  C   C98       1.0  0.52688  0.88331  0.32099  1.0000
  C   C99       1.0  0.52817  0.11734  0.67424  1.0000
  C   C100      1.0  0.47131  0.38480  0.68791  1.0000
  C   C101      1.0  0.01136  0.87791  0.04516  1.0000
  C   C102      1.0  0.97931  0.62582  0.03304  1.0000
  C   C103      1.0  0.98586  0.37475  0.97842  1.0000
  C   C104      1.0  0.02266  0.12439  0.97205  1.0000
  C   C105      1.0  0.97645  0.11403  0.81856  1.0000
  C   C106      1.0  0.03339  0.38141  0.85549  1.0000
  C   C107      1.0  0.02575  0.61638  0.18600  1.0000
  C   C108      1.0  0.96378  0.88112  0.18116  1.0000
  C   C109      1.0  0.51968  0.95969  0.02169  1.0000
  C   C110      1.0  0.47540  0.54201  0.02967  1.0000
  C   C111      1.0  0.51364  0.55427  0.32075  1.0000
  C   C112      1.0  0.48304  0.94520  0.31847  1.0000
  C   C113      1.0  0.97657  0.94750  0.21799  1.0000
  C   C114      1.0  0.01531  0.44735  0.74425  1.0000
  C   C115      1.0  0.99372  0.03567  0.47050  1.0000
  C   C116      1.0  0.02450  0.05476  0.81489  1.0000
  C   C117      1.0  0.97542  0.46372  0.51043  1.0000
  C   C118      1.0  0.01780  0.95708  0.46340  1.0000
  C   C119      1.0  0.52441  0.98103  0.20606  1.0000
  C   C120      1.0  0.47000  0.52076  0.21166  1.0000
  C   C121      1.0  0.50977  0.53113  0.48354  1.0000
  C   C122      1.0  0.48565  0.96879  0.47974  1.0000
  C   C123      1.0  0.98165  0.96850  0.03328  1.0000
  C   C124      1.0  0.01328  0.46795  0.94131  1.0000
  C   C125      1.0  0.99270  0.01206  0.63005  1.0000
  C   C126      1.0  0.02405  0.03079  0.96984  1.0000
  C   C127      1.0  0.97331  0.48434  0.70766  1.0000
  C   C128      1.0  0.02212  0.97931  0.28807  1.0000
  C   C129      1.0  0.63540  0.20843  0.84713  1.0000
  C   C130      1.0  0.36920  0.29963  0.81015  1.0000
  C   C131      1.0  0.36595  0.70157  0.16732  1.0000
  C   C132      1.0  0.63251  0.79955  0.19262  1.0000
  C   C133      1.0  0.35635  0.80534  0.36738  1.0000
  C   C134      1.0  0.64779  0.69721  0.41408  1.0000
  C   C135      1.0  0.64034  0.31226  0.63790  1.0000
  C   C136      1.0  0.35262  0.19713  0.59096  1.0000
  C   C137      1.0  0.13219  0.70395  0.32190  1.0000
  C   C138      1.0  0.85813  0.79143  0.29060  1.0000
  C   C139      1.0  0.87308  0.19893  0.68576  1.0000
  C   C140      1.0  0.13663  0.29166  0.66753  1.0000
  C   C141      1.0  0.85479  0.30208  0.89918  1.0000
  C   C142      1.0  0.14367  0.18792  0.88049  1.0000
  C   C143      1.0  0.14214  0.80778  0.12574  1.0000
  C   C144      1.0  0.85629  0.68769  0.09325  1.0000
  C   C145      1.0  0.65365  0.19613  0.62324  1.0000
  C   C146      1.0  0.36318  0.31800  0.55475  1.0000
  C   C147      1.0  0.35854  0.68361  0.42080  1.0000
  C   C148      1.0  0.63893  0.81790  0.44785  1.0000
  C   C149      1.0  0.33973  0.81472  0.61634  1.0000
  C   C150      1.0  0.66543  0.68999  0.66481  1.0000
  C   C151      1.0  0.65548  0.32405  0.38734  1.0000
  C   C152      1.0  0.33491  0.18992  0.34022  1.0000
  C   C153      1.0  0.13936  0.68594  0.06726  1.0000
  C   C154      1.0  0.84972  0.80865  0.03570  1.0000
  C   C155      1.0  0.86108  0.18166  0.92364  1.0000
  C   C156      1.0  0.15465  0.30452  0.89267  1.0000
  C   C157      1.0  0.83712  0.30948  0.14735  1.0000
  C   C158      1.0  0.15878  0.17626  0.13423  1.0000
  C   C159      1.0  0.15898  0.81685  0.87769  1.0000
  C   C160      1.0  0.84687  0.67534  0.80995  1.0000
  C   C161      1.0  0.61203  0.18943  0.92163  1.0000
  C   C162      1.0  0.39280  0.31331  0.96891  1.0000
  C   C163      1.0  0.38896  0.68674  0.01482  1.0000
  C   C164      1.0  0.60908  0.81327  0.03345  1.0000
  C   C165      1.0  0.37984  0.82468  0.30342  1.0000
  C   C166      1.0  0.62581  0.67594  0.35396  1.0000
  C   C167      1.0  0.61548  0.32959  0.70764  1.0000
  C   C168      1.0  0.37432  0.17565  0.65059  1.0000
  C   C169      1.0  0.10914  0.68922  0.47498  1.0000
  C   C170      1.0  0.87971  0.80780  0.45145  1.0000
  C   C171      1.0  0.89924  0.18594  0.57707  1.0000
  C   C172      1.0  0.11282  0.30995  0.58759  1.0000
  C   C173      1.0  0.87662  0.32345  0.84153  1.0000
  C   C174      1.0  0.11920  0.17013  0.80441  1.0000
  C   C175      1.0  0.11874  0.82729  0.18761  1.0000
  C   C176      1.0  0.87906  0.66965  0.20910  1.0000
  C   C177      1.0  0.44369  0.39773  0.65721  1.0000
  C   C178      1.0  0.55672  0.10646  0.63477  1.0000
  C   C179      1.0  0.55542  0.89427  0.36372  1.0000
  C   C180      1.0  0.44504  0.60286  0.33416  1.0000
  C   C181      1.0  0.54724  0.61558  0.57035  1.0000
  C   C182      1.0  0.45181  0.88452  0.56048  1.0000
  C   C183      1.0  0.45292  0.11665  0.42630  1.0000
  C   C184      1.0  0.54558  0.38524  0.42856  1.0000
  C   C185      1.0  0.93432  0.88965  0.14482  1.0000
  C   C186      1.0  0.05345  0.60342  0.15216  1.0000
  C   C187      1.0  0.06231  0.39145  0.90461  1.0000
  C   C188      1.0  0.94905  0.10042  0.85198  1.0000
  C   C189      1.0  0.05096  0.11716  0.07964  1.0000
  C   C190      1.0  0.95828  0.38267  0.09611  1.0000
  C   C191      1.0  0.95097  0.61830  0.92633  1.0000
  C   C192      1.0  0.03863  0.88921  0.94742  1.0000
  C   C193      1.0  0.42356  0.37706  0.52927  1.0000
  C   C194      1.0  0.57614  0.12993  0.57269  1.0000
  C   C195      1.0  0.57483  0.87091  0.43047  1.0000
  C   C196      1.0  0.42497  0.62351  0.45984  1.0000
  C   C197      1.0  0.56221  0.63853  0.72536  1.0000
  C   C198      1.0  0.43717  0.86156  0.71581  1.0000
  C   C199      1.0  0.43823  0.13974  0.27136  1.0000
  C   C200      1.0  0.56024  0.36244  0.27135  1.0000
  C   C201      1.0  0.91708  0.86468  0.07280  1.0000
  C   C202      1.0  0.07478  0.62534  0.09610  1.0000
  C   C203      1.0  0.08052  0.36723  0.97648  1.0000
  C   C204      1.0  0.92735  0.12180  0.91175  1.0000
  C   C205      1.0  0.06437  0.14064  0.24052  1.0000
  C   C206      1.0  0.94027  0.35845  0.16934  1.0000
  C   C207      1.0  0.93722  0.64163  0.76686  1.0000
  C   C208      1.0  0.05582  0.86768  0.79891  1.0000
  C   C209      1.0  0.43162  0.40662  0.94153  1.0000
  C   C210      1.0  0.56607  0.08992  0.88563  1.0000
  C   C211      1.0  0.56472  0.91080  0.11361  1.0000
  C   C212      1.0  0.43289  0.59397  0.04857  1.0000
  C   C213      1.0  0.56515  0.60791  0.31776  1.0000
  C   C214      1.0  0.43376  0.89170  0.30528  1.0000
  C   C215      1.0  0.43490  0.10942  0.67964  1.0000
  C   C216      1.0  0.56372  0.39268  0.68240  1.0000
  C   C217      1.0  0.92341  0.90443  0.40236  1.0000
  C   C218      1.0  0.06061  0.58567  0.40132  1.0000
  C   C219      1.0  0.07354  0.40720  0.65513  1.0000
  C   C220      1.0  0.94206  0.08272  0.60090  1.0000
  C   C221      1.0  0.06945  0.11091  0.82746  1.0000
  C   C222      1.0  0.94541  0.40049  0.87074  1.0000
  C   C223      1.0  0.93259  0.61196  0.17948  1.0000
  C   C224      1.0  0.05514  0.89887  0.20403  1.0000
  C   C225      1.0  0.69594  0.24874  0.27003  1.0000
  C   C226      1.0  0.31026  0.25725  0.30934  1.0000
  C   C227      1.0  0.81128  0.24333  0.18570  1.0000
  C   C228      1.0  0.19728  0.25211  0.24419  1.0000
  C   C229      1.0  0.73864  0.24421  0.67808  1.0000
  C   C230      1.0  0.26239  0.25738  0.64250  1.0000
  C   C231      1.0  0.76237  0.24349  0.86326  1.0000
  C   C232      1.0  0.23917  0.25666  0.83149  1.0000
  C   C233      1.0  0.33381  0.74507  0.81864  1.0000
  C   C234      1.0  0.66668  0.75779  0.86090  1.0000
  C   C235      1.0  0.67642  0.24907  0.03944  1.0000
  C   C236      1.0  0.33485  0.25806  0.14675  1.0000
  C   C237      1.0  0.83621  0.24150  0.34547  1.0000
  C   C238      1.0  0.17814  0.25169  0.47540  1.0000
  C   C239      1.0  0.16439  0.74733  0.67240  1.0000
  C   C240      1.0  0.83206  0.74693  0.64374  1.0000
  C   C241      1.0  0.40152  0.74985  0.65809  1.0000
  C   C242      1.0  0.59864  0.75038  0.67901  1.0000
  C   C243      1.0  0.59941  0.25384  0.33002  1.0000
  C   C244      1.0  0.40204  0.24988  0.32139  1.0000
  C   C245      1.0  0.90378  0.24974  0.18631  1.0000
  C   C246      1.0  0.10188  0.24561  0.18492  1.0000
  C   C247      1.0  0.09664  0.75237  0.83620  1.0000
  C   C248      1.0  0.89907  0.74593  0.82194  1.0000
  C   C249      1.0  0.36023  0.75475  0.22843  1.0000
  C   C250      1.0  0.64071  0.74692  0.26298  1.0000
  C   C251      1.0  0.63868  0.26125  0.77428  1.0000
  C   C252      1.0  0.36033  0.24686  0.74208  1.0000
  C   C253      1.0  0.86259  0.25218  0.75294  1.0000
  C   C254      1.0  0.14096  0.23886  0.74249  1.0000
  C   C255      1.0  0.13809  0.75717  0.26403  1.0000
  C   C256      1.0  0.85793  0.73771  0.24225  1.0000
  C   C257      1.0  0.52732  0.75085  0.20870  1.0000
  C   C258      1.0  0.52793  0.25022  0.79171  1.0000
  C   C259      1.0  0.97556  0.24915  0.71939  1.0000
  C   C260      1.0  0.03066  0.24954  0.71918  1.0000
  C   C261      1.0  0.97026  0.75083  0.29339  1.0000
  C   C262      1.0  0.57668  0.75223  0.88324  1.0000
  C   C263      1.0  0.57746  0.25076  0.12360  1.0000
  C   C264      1.0  0.92609  0.24840  0.39014  1.0000
  C   C265      1.0  0.08008  0.24856  0.39039  1.0000
  C   C266      1.0  0.92081  0.74973  0.61765  1.0000
  C   C267      1.0  0.49981  0.74981  0.37402  1.0000
  C   C268      1.0  0.50045  0.25055  0.62147  1.0000
  C   C269      1.0  0.00311  0.24945  0.88647  1.0000
  C   C270      1.0  0.99793  0.75067  0.12803  1.0000
  C   C271      1.0  0.50174  0.67308  0.87143  1.0000
  C   C272      1.0  0.99774  0.67390  0.62831  1.0000
  C   C273      1.0  0.50082  0.72232  0.54178  1.0000
  C   C274      1.0  0.99773  0.72313  0.96032  1.0000
  C   C275      1.0  0.49277  0.39107  0.49753  1.0000
  C   C276      1.0  0.50614  0.11052  0.49018  1.0000
  C   C277      1.0  0.50492  0.89026  0.50214  1.0000
  C   C278      1.0  0.49432  0.60949  0.49733  1.0000
  C   C279      1.0  0.98482  0.88928  0.99401  1.0000
  C   C280      1.0  0.00374  0.61043  0.99870  1.0000
  C   C281      1.0  0.01117  0.38788  0.03348  1.0000
  C   C282      1.0  0.99853  0.10853  0.00574  1.0000
  C   C283      1.0  0.49800  0.34912  0.91577  1.0000
  C   C284      1.0  0.50143  0.15197  0.91670  1.0000
  C   C285      1.0  0.49989  0.84863  0.07733  1.0000
  C   C286      1.0  0.49934  0.65132  0.07812  1.0000
  C   C287      1.0  0.99358  0.84883  0.42343  1.0000
  C   C288      1.0  0.00002  0.65220  0.42036  1.0000
  C   C289      1.0  0.00570  0.34863  0.58798  1.0000
  C   C290      1.0  0.00147  0.15055  0.58696  1.0000
  C   C291      1.0  0.50626  0.98732  0.42021  1.0000
  C   C292      1.0  0.48816  0.51361  0.42537  1.0000
  C   C293      1.0  0.00441  0.98538  0.06387  1.0000
  C   C294      1.0  0.99247  0.48762  0.92566  1.0000
  C   C295      1.0  0.00764  0.00899  0.88180  1.0000
  C   C296      1.0  0.49924  0.94062  0.08113  1.0000
  C   C297      1.0  0.49730  0.55967  0.08434  1.0000
  C   C298      1.0  0.99490  0.94051  0.42991  1.0000
  C   C299      1.0  0.99666  0.44485  0.52161  1.0000
  C   C300      1.0  0.00923  0.05786  0.56664  1.0000
  C   C301      1.0  0.50302  0.58296  0.91030  1.0000
  C   C302      1.0  0.49525  0.91670  0.90936  1.0000
  C   C303      1.0  0.49627  0.08424  0.08111  1.0000
  C   C304      1.0  0.50155  0.41749  0.08580  1.0000
  C   C305      1.0  0.00989  0.08296  0.41120  1.0000
  C   C306      1.0  0.99736  0.42521  0.29358  1.0000
  C   C307      1.0  0.99280  0.58474  0.59327  1.0000
  C   C308      1.0  0.99425  0.91482  0.59133  1.0000
  N   N1        1.0  0.33840  0.75917  0.04772  1.0000
  N   N2        1.0  0.66323  0.74383  0.09193  1.0000
  N   N3        1.0  0.65694  0.26605  0.99650  1.0000
  N   N4        1.0  0.33804  0.24385  0.91633  1.0000
  N   N5        1.0  0.84034  0.25553  0.57559  1.0000
  N   N6        1.0  0.15908  0.23429  0.52126  1.0000
  N   N7        1.0  0.16007  0.76145  0.44362  1.0000
  N   N8        1.0  0.83726  0.73148  0.42998  1.0000
  N   N9        1.0  0.48938  0.58811  0.67932  1.0000
  N   N10       1.0  0.50935  0.91215  0.68173  1.0000
  N   N11       1.0  0.51045  0.08866  0.31051  1.0000
  N   N12       1.0  0.48791  0.41251  0.31553  1.0000
  N   N13       1.0  0.99582  0.08609  0.17893  1.0000
  N   N14       1.0  0.01506  0.40632  0.25503  1.0000
  N   N15       1.0  0.00686  0.58798  0.82544  1.0000
  N   N16       1.0  0.97883  0.91000  0.80508  1.0000
  C   C309      1.0  0.47046  0.46499  0.94944  1.0000
  C   C310      1.0  0.49098  0.44578  0.93617  1.0000
  C  Sn1       1.0  0.51067  0.44747  0.72753  1.0000
  C  Sn2       1.0  0.50976  0.46881  0.52883  1.0000
  C   C311      1.0  0.48916  0.48793  0.54402  1.0000
  C   C312      1.0  0.46955  0.48604  0.75361  1.0000
  H   H337      1.0  0.45468  0.46334  0.11169  1.0000
  O  Te1       1.0  0.53103  0.42811  0.71723  1.0000
  O  Te2       1.0  0.52919  0.47098  0.31818  1.0000
  H   H338      1.0  0.45367  0.50092  0.76394  1.0000
  Mg  Mg1       1.0  0.55292  0.43969  0.39097  1.0000
  C   C313      1.0  0.21342  0.77551  0.80247  1.0000
  C   C314      1.0  0.19564  0.75367  0.79638  1.0000
  C  Sn3       1.0  0.19605  0.73394  0.00814  1.0000
  C  Sn4       1.0  0.21526  0.73638  0.22988  1.0000
  C   C315      1.0  0.23295  0.75832  0.23418  1.0000
  C   C316      1.0  0.23175  0.77774  0.02116  1.0000
  H   H339      1.0  0.21249  0.79055  0.63775  1.0000
  O  Te3       1.0  0.17876  0.71244  0.99878  1.0000
  O  Te4       1.0  0.21672  0.71716  0.44427  1.0000
  H   H340      1.0  0.24551  0.79466  0.02603  1.0000
  Mg  Mg2       1.0  0.18800  0.69123  0.33906  1.0000
  C   C317      1.0  0.01006  0.52968  0.51565  1.0000
  C   C318      1.0  0.99801  0.55453  0.45874  1.0000
  C  Sn5       1.0  0.98095  0.55748  0.22515  1.0000
  C  Sn6       1.0  0.97589  0.53510  0.04562  1.0000
  C   C319      1.0  0.98802  0.51032  0.10448  1.0000
  C   C320      1.0  0.00507  0.50759  0.33875  1.0000
  H   H341      1.0  0.02323  0.52756  0.69699  1.0000
  O  Te5       1.0  0.96908  0.58245  0.17130  1.0000
  O  Te6       1.0  0.95953  0.53768  0.81078  1.0000
  H   H342      1.0  0.01438  0.48834  0.38286  1.0000
  Mg  Mg3       1.0  0.94808  0.57586  0.82545  1.0000
  C   C321      1.0  0.30014  0.73043  0.35412  1.0000
  C   C322      1.0  0.31097  0.74745  0.56113  1.0000
  C  Sn7       1.0  0.29643  0.76980  0.65471  1.0000
  C  Sn8       1.0  0.27057  0.77515  0.53856  1.0000
  C   C323      1.0  0.25991  0.75799  0.33171  1.0000
  C   C324      1.0  0.27463  0.73569  0.23954  1.0000
  H   H343      1.0  0.31153  0.71316  0.28290  1.0000
  O  Te7       1.0  0.30756  0.78660  0.86160  1.0000
  O  Te8       1.0  0.25560  0.79734  0.62834  1.0000
  H   H344      1.0  0.26623  0.72250  0.07939  1.0000
  Mg  Mg4       1.0  0.27938  0.81434  0.91502  1.0000
  C   C325      1.0  0.97621  0.81849  0.90553  1.0000
  C   C326      1.0  0.99499  0.82806  0.71129  1.0000
  C  Sn9       1.0  0.01673  0.81198  0.63100  1.0000
  C  Sn10      1.0  0.01966  0.78583  0.74763  1.0000
  C   C327      1.0  0.00075  0.77643  0.94164  1.0000
  C   C328      1.0  0.97847  0.79250  0.02058  1.0000
  H   H345      1.0  0.95944  0.83107  0.96650  1.0000
  O  Te9       1.0  0.03531  0.82186  0.43677  1.0000
  O  Te10      1.0  0.04118  0.76933  0.67099  1.0000
  H   H346      1.0  0.96392  0.78508  0.17083  1.0000
  Mg  Mg5       1.0  0.06125  0.79180  0.39862  1.0000
  C   C329      1.0  0.43127  0.23084  0.82960  1.0000
  C   C330      1.0  0.42341  0.24736  0.05429  1.0000
  C  Sn11      1.0  0.44027  0.26851  0.13796  1.0000
  C  Sn12      1.0  0.46543  0.27317  0.99353  1.0000
  C   C331      1.0  0.47249  0.25635  0.76887  1.0000
  C   C332      1.0  0.45548  0.23523  0.68696  1.0000
  H   H347      1.0  0.41810  0.21451  0.76610  1.0000
  O  Te11      1.0  0.43272  0.28502  0.36295  1.0000
  O  Te12      1.0  0.48204  0.29398  0.07270  1.0000
  H   H348      1.0  0.46109  0.22230  0.51287  1.0000
  Mg  Mg6       1.0  0.46294  0.31100  0.39228  1.0000
  C   C333      1.0  0.69864  0.77540  0.40141  1.0000
  C   C334      1.0  0.69132  0.75981  0.63399  1.0000
  C  Sn13      1.0  0.70983  0.74206  0.75618  1.0000
  C  Sn14      1.0  0.73614  0.73994  0.64300  1.0000
  C   C335      1.0  0.74327  0.75564  0.41040  1.0000
  C   C336      1.0  0.72459  0.77332  0.28972  1.0000
  H   H349      1.0  0.68420  0.78910  0.30811  1.0000
  O  Te13      1.0  0.70218  0.72663  0.98840  1.0000
  O  Te14      1.0  0.75503  0.72237  0.76108  1.0000
  H   H350      1.0  0.73027  0.78541  0.10976  1.0000
  Mg  Mg7       1.0  0.73444  0.70537  0.07556  1.0000
  C   C337      1.0  0.47925  0.31891  0.39721  1.0000
  C   C338      1.0  0.49818  0.32827  0.20343  1.0000
  C  Sn15      1.0  0.51984  0.31202  0.12495  1.0000
  C  Sn16      1.0  0.52256  0.28590  0.24296  1.0000
  C   C339      1.0  0.50351  0.27671  0.43650  1.0000
  C   C340      1.0  0.48191  0.29315  0.51362  1.0000
  H   H351      1.0  0.46253  0.33162  0.45678  1.0000
  O  Te15      1.0  0.53919  0.32189  0.93115  1.0000
  O  Te16      1.0  0.54401  0.26923  0.16815  1.0000
  H   H352      1.0  0.46725  0.28588  0.66352  1.0000
  Mg  Mg8       1.0  0.56495  0.29165  0.89568  1.0000
  C   C341      1.0  0.02244  0.30540  0.00813  1.0000
  C   C342      1.0  0.00721  0.28193  0.04074  1.0000
  C  Sn17      1.0  0.98653  0.28095  0.23923  1.0000
  C  Sn18      1.0  0.98105  0.30393  0.40784  1.0000
  C   C343      1.0  0.99639  0.32732  0.37346  1.0000
  C   C344      1.0  0.01704  0.32808  0.17427  1.0000
  H   H353      1.0  0.03902  0.30619  0.85391  1.0000
  O  Te17      1.0  0.97152  0.25733  0.26916  1.0000
  O  Te18      1.0  0.96050  0.30351  0.60774  1.0000
  H   H354      1.0  0.02881  0.34626  0.14894  1.0000
  Mg  Mg9       1.0  0.94562  0.26663  0.57030  1.0000
  C   C345      1.0  0.47713  0.21363  0.19084  1.0000
  C   C346      1.0  0.49283  0.22024  0.42696  1.0000
  C  Sn19      1.0  0.51372  0.20327  0.51381  1.0000
  C  Sn20      1.0  0.51895  0.17925  0.36096  1.0000
  C   C347      1.0  0.50314  0.17282  0.12490  1.0000
  C   C348      1.0  0.48228  0.18994  0.03990  1.0000
  H   H355      1.0  0.46101  0.22688  0.12496  1.0000
  O  Te19      1.0  0.52921  0.21018  0.75025  1.0000
  O  Te20      1.0  0.53970  0.16193  0.44307  1.0000
  H   H356      1.0  0.47075  0.18502  0.85696  1.0000
  Mg  Mg10      1.0  0.55523  0.18008  0.77937  1.0000
  C   C349      1.0  0.78536  0.77398  0.83672  1.0000
  C   C350      1.0  0.80450  0.75341  0.82215  1.0000
  C  Sn21      1.0  0.80249  0.73094  0.99795  1.0000
  C  Sn22      1.0  0.78027  0.72888  0.19167  1.0000
  C   C351      1.0  0.76121  0.74956  0.20449  1.0000
  C   C352      1.0  0.76343  0.77196  0.02765  1.0000
  H   H357      1.0  0.78706  0.79130  0.69980  1.0000
  O  Te21      1.0  0.82179  0.71057  0.98072  1.0000
  O  Te22      1.0  0.77777  0.70665  0.36976  1.0000
  H   H358      1.0  0.74859  0.78787  0.03886  1.0000
  Mg  Mg11      1.0  0.80911  0.68408  0.26754  1.0000
  C   C353      1.0  0.46312  0.72514  0.95113  1.0000
  C   C354      1.0  0.47081  0.74335  0.15771  1.0000
  C  Sn23      1.0  0.45390  0.76448  0.23743  1.0000
  C  Sn24      1.0  0.42820  0.76717  0.10759  1.0000
  C   C355      1.0  0.42069  0.74883  0.90128  1.0000
  C   C356      1.0  0.43778  0.72777  0.82304  1.0000
  H   H359      1.0  0.47634  0.70883  0.89069  1.0000
  O  Te23      1.0  0.46251  0.78271  0.44411  1.0000
  O  Te24      1.0  0.41089  0.78809  0.18334  1.0000
  H   H360      1.0  0.43134  0.71351  0.66322  1.0000
  Mg  Mg12      1.0  0.43172  0.80785  0.47562  1.0000
  C   C357      1.0  0.48203  0.03856  0.52422  1.0000
  C   C358      1.0  0.50136  0.01819  0.54443  1.0000
  C  Sn25      1.0  0.52063  0.01876  0.76060  1.0000
  C  Sn26      1.0  0.52050  0.04013  0.95997  1.0000
  C   C359      1.0  0.50107  0.06039  0.93804  1.0000
  C   C360      1.0  0.48188  0.05964  0.72084  1.0000
  H   H361      1.0  0.46717  0.03796  0.35626  1.0000
  O  Te25      1.0  0.54106  0.99826  0.77765  1.0000
  O  Te26      1.0  0.53891  0.04098  0.17820  1.0000
  H   H362      1.0  0.46690  0.07540  0.70535  1.0000
  Mg  Mg13      1.0  0.56096  0.00837  0.11279  1.0000
  C   C361      1.0  0.03568  0.72690  0.54921  1.0000
  C   C362      1.0  0.02710  0.74498  0.34162  1.0000
  C  Sn27      1.0  0.04376  0.76624  0.25952  1.0000
  C  Sn28      1.0  0.06948  0.76940  0.38795  1.0000
  C   C363      1.0  0.07788  0.75119  0.59529  1.0000
  C   C364      1.0  0.06104  0.73000  0.67592  1.0000
  H   H363      1.0  0.02266  0.71050  0.61150  1.0000
  O  Te27      1.0  0.03487  0.78413  0.05186  1.0000
  O  Te28      1.0  0.08654  0.79046  0.30981  1.0000
  H   H364      1.0  0.06770  0.71599  0.83652  1.0000
  Mg  Mg14      1.0  0.06539  0.80963  0.01701  1.0000
  C   C365      1.0  0.51908  0.81880  0.59541  1.0000
  C   C366      1.0  0.49994  0.82763  0.78979  1.0000
  C  Sn29      1.0  0.47883  0.81068  0.86940  1.0000
  C  Sn30      1.0  0.47690  0.78443  0.75192  1.0000
  C   C367      1.0  0.49616  0.77578  0.55777  1.0000
  C   C368      1.0  0.51720  0.79291  0.47952  1.0000
  H   H365      1.0  0.53537  0.83205  0.53496  1.0000
  O  Te29      1.0  0.45926  0.81962  0.06380  1.0000
  O  Te30      1.0  0.45601  0.76707  0.82786  1.0000
  H   H366      1.0  0.53203  0.78607  0.32915  1.0000
  Mg  Mg15      1.0  0.43447  0.78854  0.10079  1.0000
  C   C369      1.0  0.98261  0.19268  0.00301  1.0000
  C   C370      1.0  0.99833  0.21594  0.02941  1.0000
  C  Sn31      1.0  0.01947  0.21696  0.22530  1.0000
  C  Sn32      1.0  0.02493  0.19425  0.39761  1.0000
  C   C371      1.0  0.00911  0.17106  0.36944  1.0000
  C   C372      1.0  0.98800  0.17026  0.17281  1.0000
  H   H367      1.0  0.96690  0.19225  0.85077  1.0000
  O  Te31      1.0  0.03496  0.24037  0.24900  1.0000
  O  Te32      1.0  0.04595  0.19472  0.59503  1.0000
  H   H368      1.0  0.97584  0.15224  0.15229  1.0000
  Mg  Mg16      1.0  0.06138  0.23124  0.54887  1.0000
