data_image0
_chemical_formula_structural       Ni4H192C208N48O16C2Sn2C2HTe2HMgC2Sn2C2HTe2HMgC2Sn2C2HTe2HMgC2Sn2C2HTe2HMgC2Sn2C2HTe2HMgC2Sn2C2HTe2HMgC2Sn2C2HTe2HMgC2Sn2C2HTe2HMgC2Sn2C2HTe2HMgC2Sn2C2HTe2HMgC2Sn2C2HTe2HMgC2Sn2C2HTe2HMgC2Sn2C2HTe2HMgC2Sn2C2HTe2HMgC2Sn2C2HTe2HMgC2Sn2C2HTe2HMgC2Sn2C2HTe2HMgC2Sn2C2HTe2HMgC2Sn2C2HTe2HMgC2Sn2C2HTe2HMgC2Sn2C2HTe2HMgC2Sn2C2HTe2HMgC2Sn2C2HTe2HMgC2Sn2C2HTe2HMgC2Sn2C2HTe2HMgC2Sn2C2HTe2HMgC2Sn2C2HTe2HMgC2Sn2C2HTe2HMgC2Sn2C2HTe2HMgC2Sn2C2HTe2HMgC2Sn2C2HTe2HMgC2Sn2C2HTe2HMg
_chemical_formula_sum              "Ni4 H256 C336 N48 O16 Sn64 Te64 Mg32"
_cell_length_a       50.2385
_cell_length_b       46.4356
_cell_length_c       8.14434
_cell_angle_alpha    89.4663
_cell_angle_beta     74.6273
_cell_angle_gamma    89.876

_symmetry_space_group_name_H-M    'P1'
_space_group_IT_number       1

loop_
  _space_group_symop_operation_xyz
  'x, y, z'

loop_
  _atom_site_type_symbol
  _atom_site_label
  _atom_site_symmetry_multiplicity
  _atom_site_fract_x
  _atom_site_fract_y
  _atom_site_fract_z
  _atom_site_occupancy
  Ni  Ni1       1.0  0.50041  0.50167  0.23796  1.0000
  Ni  Ni2       1.0  0.99938  0.00210  0.26153  1.0000
  Ni  Ni3       1.0  0.50064  0.49973  0.74542  1.0000
  Ni  Ni4       1.0  0.00060  0.00046  0.76341  1.0000
  H   H1        1.0  0.47601  0.61065  0.20567  1.0000
  H   H2        1.0  0.52654  0.61017  0.26022  1.0000
  H   H3        1.0  0.97441  0.11080  0.22539  1.0000
  H   H4        1.0  0.02473  0.11080  0.28326  1.0000
  H   H5        1.0  0.52460  0.39279  0.27064  1.0000
  H   H6        1.0  0.47356  0.39331  0.22501  1.0000
  H   H7        1.0  0.02539  0.89339  0.28406  1.0000
  H   H8        1.0  0.97436  0.89333  0.23843  1.0000
  H   H9        1.0  0.41140  0.52965  0.57742  1.0000
  H   H10       1.0  0.59123  0.52775  0.89977  1.0000
  H   H11       1.0  0.91101  0.02954  0.59811  1.0000
  H   H12       1.0  0.09077  0.02938  0.92047  1.0000
  H   H13       1.0  0.59056  0.46967  0.90469  1.0000
  H   H14       1.0  0.41094  0.47152  0.58099  1.0000
  H   H15       1.0  0.09089  0.97124  0.92012  1.0000
  H   H16       1.0  0.91114  0.97141  0.59887  1.0000
  H   H17       1.0  0.61478  0.65674  0.50914  1.0000
  H   H18       1.0  0.38704  0.65959  0.96668  1.0000
  H   H19       1.0  0.11464  0.15677  0.53398  1.0000
  H   H20       1.0  0.88237  0.15600  0.98244  1.0000
  H   H21       1.0  0.38842  0.34381  0.98319  1.0000
  H   H22       1.0  0.60706  0.34093  0.52982  1.0000
  H   H23       1.0  0.88872  0.84360  0.99836  1.0000
  H   H24       1.0  0.11167  0.84323  0.52590  1.0000
  H   H25       1.0  0.67173  0.76435  0.26706  1.0000
  H   H26       1.0  0.33045  0.76925  0.20331  1.0000
  H   H27       1.0  0.17128  0.26576  0.30213  1.0000
  H   H28       1.0  0.82449  0.26314  0.20897  1.0000
  H   H29       1.0  0.33318  0.23519  0.25993  1.0000
  H   H30       1.0  0.66242  0.23209  0.25910  1.0000
  H   H31       1.0  0.83253  0.73575  0.25849  1.0000
  H   H32       1.0  0.16850  0.73455  0.26219  1.0000
  H   H33       1.0  0.69092  0.77883  0.06975  1.0000
  H   H34       1.0  0.31215  0.78237  0.40492  1.0000
  H   H35       1.0  0.18927  0.27821  0.09703  1.0000
  H   H36       1.0  0.80642  0.27600  0.41134  1.0000
  H   H37       1.0  0.31343  0.21493  0.43569  1.0000
  H   H38       1.0  0.68191  0.21014  0.09338  1.0000
  H   H39       1.0  0.81250  0.71716  0.44043  1.0000
  H   H40       1.0  0.18765  0.71708  0.07543  1.0000
  H   H41       1.0  0.69489  0.82520  0.18739  1.0000
  H   H42       1.0  0.30476  0.82874  0.29299  1.0000
  H   H43       1.0  0.19557  0.32542  0.19441  1.0000
  H   H44       1.0  0.80262  0.32325  0.31145  1.0000
  H   H45       1.0  0.31124  0.17375  0.25597  1.0000
  H   H46       1.0  0.68483  0.17160  0.29611  1.0000
  H   H47       1.0  0.81004  0.67421  0.27352  1.0000
  H   H48       1.0  0.19483  0.67456  0.23685  1.0000
  H   H49       1.0  0.68649  0.81234  0.39688  1.0000
  H   H50       1.0  0.31249  0.81689  0.08297  1.0000
  H   H51       1.0  0.18947  0.31467  0.40684  1.0000
  H   H52       1.0  0.80352  0.31246  0.10577  1.0000
  H   H53       1.0  0.32660  0.19312  0.06888  1.0000
  H   H54       1.0  0.66818  0.19284  0.47083  1.0000
  H   H55       1.0  0.82572  0.69194  0.08102  1.0000
  H   H56       1.0  0.18003  0.69115  0.43246  1.0000
  H   H57       1.0  0.63795  0.80244  0.38982  1.0000
  H   H58       1.0  0.36205  0.80932  0.07922  1.0000
  H   H59       1.0  0.13955  0.30560  0.42614  1.0000
  H   H60       1.0  0.85389  0.30176  0.04221  1.0000
  H   H61       1.0  0.37015  0.19878  0.16041  1.0000
  H   H62       1.0  0.62556  0.19515  0.36536  1.0000
  H   H63       1.0  0.86910  0.69888  0.17381  1.0000
  H   H64       1.0  0.13449  0.69496  0.36108  1.0000
  H   H65       1.0  0.64551  0.81296  0.17513  1.0000
  H   H66       1.0  0.35509  0.81921  0.29358  1.0000
  H   H67       1.0  0.14496  0.31387  0.20952  1.0000
  H   H68       1.0  0.85406  0.30903  0.25243  1.0000
  H   H69       1.0  0.35527  0.18010  0.35075  1.0000
  H   H70       1.0  0.64184  0.17433  0.18841  1.0000
  H   H71       1.0  0.85386  0.68169  0.36867  1.0000
  H   H72       1.0  0.14886  0.67912  0.16250  1.0000
  H   H73       1.0  0.65256  0.86428  0.79410  1.0000
  H   H74       1.0  0.38401  0.85964  0.61171  1.0000
  H   H75       1.0  0.13421  0.34724  0.03902  1.0000
  H   H76       1.0  0.86679  0.34351  0.41820  1.0000
  H   H77       1.0  0.34544  0.14600  0.54988  1.0000
  H   H78       1.0  0.62527  0.14563  0.90955  1.0000
  H   H79       1.0  0.85022  0.64468  0.55341  1.0000
  H   H80       1.0  0.15590  0.64601  0.96946  1.0000
  H   H81       1.0  0.65661  0.86337  0.25071  1.0000
  H   H82       1.0  0.37518  0.86121  0.10124  1.0000
  H   H83       1.0  0.15862  0.36476  0.25957  1.0000
  H   H84       1.0  0.87168  0.35204  0.06325  1.0000
  H   H85       1.0  0.35053  0.13552  0.18528  1.0000
  H   H86       1.0  0.64597  0.13267  0.38291  1.0000
  H   H87       1.0  0.88420  0.64716  0.16388  1.0000
  H   H88       1.0  0.12293  0.64210  0.37245  1.0000
  H   H89       1.0  0.64963  0.85313  0.46744  1.0000
  H   H90       1.0  0.34105  0.86906  0.22196  1.0000
  H   H91       1.0  0.15355  0.35679  0.47830  1.0000
  H   H92       1.0  0.84061  0.36079  0.21772  1.0000
  H   H93       1.0  0.36474  0.15424  0.99186  1.0000
  H   H94       1.0  0.62980  0.15358  0.56230  1.0000
  H   H95       1.0  0.84932  0.63563  0.21507  1.0000
  H   H96       1.0  0.15857  0.63343  0.30897  1.0000
  H   H97       1.0  0.47656  0.60863  0.70974  1.0000
  H   H98       1.0  0.52723  0.60808  0.76060  1.0000
  H   H99       1.0  0.97485  0.10908  0.73824  1.0000
  H   H100      1.0  0.02568  0.10911  0.78718  1.0000
  H   H101      1.0  0.52469  0.39063  0.78050  1.0000
  H   H102      1.0  0.47422  0.39123  0.72581  1.0000
  H   H103      1.0  0.02629  0.89176  0.79020  1.0000
  H   H104      1.0  0.97546  0.89162  0.74029  1.0000
  H   H105      1.0  0.41021  0.53171  0.08131  1.0000
  H   H106      1.0  0.58997  0.52976  0.40371  1.0000
  H   H107      1.0  0.90953  0.03106  0.09891  1.0000
  H   H108      1.0  0.08842  0.03097  0.43132  1.0000
  H   H109      1.0  0.58940  0.47159  0.40658  1.0000
  H   H110      1.0  0.40934  0.47357  0.08822  1.0000
  H   H111      1.0  0.08881  0.97284  0.42832  1.0000
  H   H112      1.0  0.90936  0.97293  0.10353  1.0000
  H   H113      1.0  0.61348  0.65568  0.01153  1.0000
  H   H114      1.0  0.39115  0.65946  0.46245  1.0000
  H   H115      1.0  0.11071  0.15800  0.03943  1.0000
  H   H116      1.0  0.89168  0.15901  0.46889  1.0000
  H   H117      1.0  0.38396  0.34557  0.48472  1.0000
  H   H118      1.0  0.61635  0.34391  0.02119  1.0000
  H   H119      1.0  0.88627  0.84441  0.49993  1.0000
  H   H120      1.0  0.11712  0.84484  0.02331  1.0000
  H   H121      1.0  0.66930  0.76450  0.75193  1.0000
  H   H122      1.0  0.33533  0.76877  0.72191  1.0000
  H   H123      1.0  0.16635  0.26622  0.77619  1.0000
  H   H124      1.0  0.83470  0.26598  0.73386  1.0000
  H   H125      1.0  0.32822  0.23637  0.73699  1.0000
  H   H126      1.0  0.67266  0.23480  0.78462  1.0000
  H   H127      1.0  0.83004  0.73486  0.73709  1.0000
  H   H128      1.0  0.17395  0.73615  0.77020  1.0000
  H   H129      1.0  0.68899  0.78286  0.56852  1.0000
  H   H130      1.0  0.31619  0.78687  0.90633  1.0000
  H   H131      1.0  0.18581  0.28582  0.59664  1.0000
  H   H132      1.0  0.81522  0.28848  0.89685  1.0000
  H   H133      1.0  0.30985  0.22348  0.94034  1.0000
  H   H134      1.0  0.69038  0.22209  0.58111  1.0000
  H   H135      1.0  0.81103  0.72164  0.93838  1.0000
  H   H136      1.0  0.19226  0.72279  0.56935  1.0000
  H   H137      1.0  0.69160  0.82617  0.72927  1.0000
  H   H138      1.0  0.31113  0.82967  0.74040  1.0000
  H   H139      1.0  0.18871  0.32768  0.77066  1.0000
  H   H140      1.0  0.81268  0.32647  0.69130  1.0000
  H   H141      1.0  0.30479  0.17635  0.84115  1.0000
  H   H142      1.0  0.69514  0.17488  0.68025  1.0000
  H   H143      1.0  0.80592  0.67473  0.83209  1.0000
  H   H144      1.0  0.19903  0.67636  0.68217  1.0000
  H   H145      1.0  0.67753  0.80881  0.92513  1.0000
  H   H146      1.0  0.32602  0.81245  0.54680  1.0000
  H   H147      1.0  0.17373  0.30887  0.96054  1.0000
  H   H148      1.0  0.82878  0.30471  0.51787  1.0000
  H   H149      1.0  0.30974  0.18741  0.63010  1.0000
  H   H150      1.0  0.69299  0.18549  0.88795  1.0000
  H   H151      1.0  0.81367  0.68627  0.62014  1.0000
  H   H152      1.0  0.19164  0.68836  0.89183  1.0000
  H   H153      1.0  0.63280  0.80113  0.85033  1.0000
  H   H154      1.0  0.37090  0.80721  0.62420  1.0000
  H   H155      1.0  0.12983  0.30256  0.87193  1.0000
  H   H156      1.0  0.87189  0.30261  0.61777  1.0000
  H   H157      1.0  0.35970  0.19724  0.60139  1.0000
  H   H158      1.0  0.64272  0.19567  0.94229  1.0000
  H   H159      1.0  0.86276  0.69573  0.61779  1.0000
  H   H160      1.0  0.14211  0.69644  0.89749  1.0000
  H   H161      1.0  0.64634  0.81748  0.65073  1.0000
  H   H162      1.0  0.35649  0.82341  0.82152  1.0000
  H   H163      1.0  0.14439  0.32107  0.68046  1.0000
  H   H164      1.0  0.85625  0.32401  0.79341  1.0000
  H   H165      1.0  0.35569  0.18847  0.81623  1.0000
  H   H166      1.0  0.64380  0.18920  0.72930  1.0000
  H   H167      1.0  0.85578  0.68666  0.83438  1.0000
  H   H168      1.0  0.14880  0.68684  0.68274  1.0000
  H   H169      1.0  0.62256  0.85362  0.36506  1.0000
  H   H170      1.0  0.34735  0.85942  0.00569  1.0000
  H   H171      1.0  0.12502  0.35672  0.38844  1.0000
  H   H172      1.0  0.84003  0.35389  0.00571  1.0000
  H   H173      1.0  0.38542  0.14706  0.13341  1.0000
  H   H174      1.0  0.61105  0.14331  0.41572  1.0000
  H   H175      1.0  0.86411  0.65283  0.01730  1.0000
  H   H176      1.0  0.14423  0.64932  0.50951  1.0000
  H   H177      1.0  0.63890  0.84787  0.99558  1.0000
  H   H178      1.0  0.34865  0.86949  0.67277  1.0000
  H   H179      1.0  0.11443  0.35443  0.89253  1.0000
  H   H180      1.0  0.88635  0.35442  0.55901  1.0000
  H   H181      1.0  0.37515  0.14615  0.62863  1.0000
  H   H182      1.0  0.65704  0.13729  0.76056  1.0000
  H   H183      1.0  0.87751  0.64462  0.65400  1.0000
  H   H184      1.0  0.12837  0.64473  0.87097  1.0000
  H   H185      1.0  0.61760  0.85296  0.85544  1.0000
  H   H186      1.0  0.36280  0.85327  0.47288  1.0000
  H   H187      1.0  0.14929  0.36589  0.84663  1.0000
  H   H188      1.0  0.85132  0.36493  0.59646  1.0000
  H   H189      1.0  0.34230  0.13757  0.76617  1.0000
  H   H190      1.0  0.65612  0.14329  0.97591  1.0000
  H   H191      1.0  0.84340  0.63585  0.77217  1.0000
  H   H192      1.0  0.16259  0.63667  0.75260  1.0000
  C   C1        1.0  0.48036  0.56273  0.21013  1.0000
  C   C2        1.0  0.52154  0.56232  0.25903  1.0000
  C   C3        1.0  0.97895  0.06293  0.23244  1.0000
  C   C4        1.0  0.01999  0.06293  0.28371  1.0000
  C   C5        1.0  0.52036  0.44074  0.26507  1.0000
  C   C6        1.0  0.47879  0.44115  0.22249  1.0000
  C   C7        1.0  0.02043  0.94128  0.28308  1.0000
  C   C8        1.0  0.97887  0.94124  0.24018  1.0000
  C   C9        1.0  0.48841  0.59221  0.21953  1.0000
  C   C10       1.0  0.51394  0.59196  0.24719  1.0000
  C   C11       1.0  0.98685  0.09248  0.24070  1.0000
  C   C12       1.0  0.01227  0.09248  0.27008  1.0000
  C   C13       1.0  0.51221  0.41126  0.25743  1.0000
  C   C14       1.0  0.48637  0.41152  0.23467  1.0000
  C   C15       1.0  0.01273  0.91172  0.27242  1.0000
  C   C16       1.0  0.98688  0.91169  0.24974  1.0000
  C   C17       1.0  0.44891  0.52591  0.16397  1.0000
  C   C18       1.0  0.55191  0.52484  0.31364  1.0000
  C   C19       1.0  0.94802  0.02571  0.18442  1.0000
  C   C20       1.0  0.05054  0.02573  0.33967  1.0000
  C   C21       1.0  0.55146  0.47752  0.31577  1.0000
  C   C22       1.0  0.44819  0.47857  0.16997  1.0000
  C   C23       1.0  0.05083  0.97839  0.33772  1.0000
  C   C24       1.0  0.94789  0.97834  0.18832  1.0000
  C   C25       1.0  0.42462  0.51711  0.11604  1.0000
  C   C26       1.0  0.57556  0.51549  0.36780  1.0000
  C   C27       1.0  0.92400  0.01663  0.13435  1.0000
  C   C28       1.0  0.07427  0.01660  0.39372  1.0000
  C   C29       1.0  0.57528  0.48623  0.36916  1.0000
  C   C30       1.0  0.42418  0.48785  0.11969  1.0000
  C   C31       1.0  0.07446  0.98735  0.39223  1.0000
  C   C32       1.0  0.92390  0.98736  0.13687  1.0000
  C   C33       1.0  0.45523  0.55474  0.18127  1.0000
  C   C34       1.0  0.54637  0.55381  0.29097  1.0000
  C   C35       1.0  0.95395  0.05463  0.20284  1.0000
  C   C36       1.0  0.04479  0.05465  0.31702  1.0000
  C   C37       1.0  0.54533  0.44876  0.29568  1.0000
  C   C38       1.0  0.45376  0.44965  0.19356  1.0000
  C   C39       1.0  0.04530  0.94956  0.31425  1.0000
  C   C40       1.0  0.95379  0.94947  0.21078  1.0000
  C   C41       1.0  0.63231  0.65403  0.39620  1.0000
  C   C42       1.0  0.37015  0.65731  0.08372  1.0000
  C   C43       1.0  0.13164  0.15448  0.41774  1.0000
  C   C44       1.0  0.86587  0.15389  0.10161  1.0000
  C   C45       1.0  0.37038  0.34680  0.09259  1.0000
  C   C46       1.0  0.62552  0.34395  0.42298  1.0000
  C   C47       1.0  0.87081  0.84627  0.10894  1.0000
  C   C48       1.0  0.12953  0.84657  0.41546  1.0000
  C   C49       1.0  0.71758  0.73942  0.29286  1.0000
  C   C50       1.0  0.28456  0.74263  0.19182  1.0000
  C   C51       1.0  0.21769  0.23927  0.30865  1.0000
  C   C52       1.0  0.77822  0.23681  0.20320  1.0000
  C   C53       1.0  0.28759  0.25884  0.21803  1.0000
  C   C54       1.0  0.70816  0.25603  0.29817  1.0000
  C   C55       1.0  0.78718  0.75936  0.21538  1.0000
  C   C56       1.0  0.21414  0.76034  0.28841  1.0000
  C   C57       1.0  0.73992  0.78251  0.18239  1.0000
  C   C58       1.0  0.26151  0.78469  0.30886  1.0000
  C   C59       1.0  0.23992  0.28228  0.19648  1.0000
  C   C60       1.0  0.75599  0.27962  0.31259  1.0000
  C   C61       1.0  0.26562  0.21559  0.33014  1.0000
  C   C62       1.0  0.73015  0.21289  0.18817  1.0000
  C   C63       1.0  0.76496  0.71625  0.32674  1.0000
  C   C64       1.0  0.23726  0.71848  0.16730  1.0000
  C   C65       1.0  0.75940  0.76244  0.22340  1.0000
  C   C66       1.0  0.24210  0.76428  0.27231  1.0000
  C   C67       1.0  0.25962  0.26199  0.23240  1.0000
  C   C68       1.0  0.73624  0.25936  0.27936  1.0000
  C   C69       1.0  0.24563  0.23582  0.29602  1.0000
  C   C70       1.0  0.75024  0.23327  0.21700  1.0000
  C   C71       1.0  0.74533  0.73622  0.28604  1.0000
  C   C72       1.0  0.25669  0.73877  0.20460  1.0000
  C   C73       1.0  0.68854  0.77917  0.20785  1.0000
  C   C74       1.0  0.31332  0.78317  0.26818  1.0000
  C   C75       1.0  0.18822  0.27968  0.23325  1.0000
  C   C76       1.0  0.80757  0.27720  0.27486  1.0000
  C   C77       1.0  0.31704  0.21876  0.29796  1.0000
  C   C78       1.0  0.67848  0.21550  0.22867  1.0000
  C   C79       1.0  0.81622  0.71964  0.30174  1.0000
  C   C80       1.0  0.18545  0.71943  0.21272  1.0000
  C   C81       1.0  0.68149  0.80984  0.27429  1.0000
  C   C82       1.0  0.31848  0.81433  0.20271  1.0000
  C   C83       1.0  0.18269  0.31107  0.29089  1.0000
  C   C84       1.0  0.81310  0.30845  0.21059  1.0000
  C   C85       1.0  0.32645  0.19063  0.20344  1.0000
  C   C86       1.0  0.66913  0.18840  0.33702  1.0000
  C   C87       1.0  0.82541  0.69069  0.21639  1.0000
  C   C88       1.0  0.17885  0.68994  0.29983  1.0000
  C   C89       1.0  0.65101  0.81710  0.29506  1.0000
  C   C90       1.0  0.34870  0.82319  0.17598  1.0000
  C   C91       1.0  0.15212  0.31906  0.32244  1.0000
  C   C92       1.0  0.84407  0.31524  0.15223  1.0000
  C   C93       1.0  0.35522  0.18171  0.21584  1.0000
  C   C94       1.0  0.64091  0.17798  0.32318  1.0000
  C   C95       1.0  0.85405  0.68214  0.23311  1.0000
  C   C96       1.0  0.15019  0.67941  0.29533  1.0000
  C   C97       1.0  0.64448  0.84848  0.34740  1.0000
  C   C98       1.0  0.35345  0.85492  0.12337  1.0000
  C   C99       1.0  0.14694  0.35104  0.36455  1.0000
  C   C100      1.0  0.84952  0.34719  0.10706  1.0000
  C   C101      1.0  0.36457  0.15310  0.12705  1.0000
  C   C102      1.0  0.63136  0.15040  0.42644  1.0000
  C   C103      1.0  0.86350  0.65288  0.15322  1.0000
  C   C104      1.0  0.14354  0.64946  0.37573  1.0000
  C   C105      1.0  0.48063  0.56068  0.71680  1.0000
  C   C106      1.0  0.52203  0.56024  0.76254  1.0000
  C   C107      1.0  0.97971  0.06118  0.74064  1.0000
  C   C108      1.0  0.02115  0.06122  0.78537  1.0000
  C   C109      1.0  0.52055  0.43858  0.77478  1.0000
  C   C110      1.0  0.47941  0.43907  0.72528  1.0000
  C   C111      1.0  0.02136  0.93961  0.78721  1.0000
  C   C112      1.0  0.97998  0.93953  0.74127  1.0000
  C   C113      1.0  0.48881  0.59015  0.72457  1.0000
  C   C114      1.0  0.51450  0.58987  0.74981  1.0000
  C   C115      1.0  0.98744  0.09074  0.75088  1.0000
  C   C116      1.0  0.01318  0.09077  0.77523  1.0000
  C   C117      1.0  0.51238  0.40912  0.76636  1.0000
  C   C118      1.0  0.48687  0.40942  0.73839  1.0000
  C   C119      1.0  0.01363  0.91005  0.77765  1.0000
  C   C120      1.0  0.98793  0.90999  0.75239  1.0000
  C   C121      1.0  0.44949  0.52389  0.66698  1.0000
  C   C122      1.0  0.55256  0.52279  0.81603  1.0000
  C   C123      1.0  0.94909  0.02406  0.68800  1.0000
  C   C124      1.0  0.05215  0.02409  0.83639  1.0000
  C   C125      1.0  0.55196  0.47542  0.82076  1.0000
  C   C126      1.0  0.44912  0.47655  0.66954  1.0000
  C   C127      1.0  0.05219  0.97676  0.83708  1.0000
  C   C128      1.0  0.94918  0.97671  0.68855  1.0000
  C   C129      1.0  0.42562  0.51509  0.61439  1.0000
  C   C130      1.0  0.57651  0.51350  0.86699  1.0000
  C   C131      1.0  0.92534  0.01508  0.63471  1.0000
  C   C132      1.0  0.07623  0.01500  0.88670  1.0000
  C   C133      1.0  0.57615  0.48424  0.86972  1.0000
  C   C134      1.0  0.42540  0.48583  0.61598  1.0000
  C   C135      1.0  0.07627  0.98574  0.88686  1.0000
  C   C136      1.0  0.92540  0.98582  0.63512  1.0000
  C   C137      1.0  0.45560  0.55269  0.68656  1.0000
  C   C138      1.0  0.54697  0.55172  0.79279  1.0000
  C   C139      1.0  0.95486  0.05290  0.70916  1.0000
  C   C140      1.0  0.04622  0.05296  0.81463  1.0000
  C   C141      1.0  0.54569  0.44656  0.80349  1.0000
  C   C142      1.0  0.45464  0.44760  0.69264  1.0000
  C   C143      1.0  0.04637  0.94792  0.81638  1.0000
  C   C144      1.0  0.95499  0.94778  0.71051  1.0000
  C   C145      1.0  0.63124  0.65328  0.89980  1.0000
  C   C146      1.0  0.37331  0.65677  0.57381  1.0000
  C   C147      1.0  0.12884  0.15536  0.93019  1.0000
  C   C148      1.0  0.87306  0.15556  0.57407  1.0000
  C   C149      1.0  0.36737  0.34758  0.60322  1.0000
  C   C150      1.0  0.63246  0.34551  0.89999  1.0000
  C   C151      1.0  0.86909  0.84664  0.61524  1.0000
  C   C152      1.0  0.13359  0.84713  0.90422  1.0000
  C   C153      1.0  0.71457  0.74081  0.79235  1.0000
  C   C154      1.0  0.28994  0.74428  0.69045  1.0000
  C   C155      1.0  0.21203  0.24266  0.81601  1.0000
  C   C156      1.0  0.78916  0.24205  0.69158  1.0000
  C   C157      1.0  0.28194  0.26218  0.72323  1.0000
  C   C158      1.0  0.71910  0.26129  0.78586  1.0000
  C   C159      1.0  0.78422  0.76052  0.71652  1.0000
  C   C160      1.0  0.21971  0.76242  0.78308  1.0000
  C   C161      1.0  0.73718  0.78385  0.68130  1.0000
  C   C162      1.0  0.26697  0.78648  0.80819  1.0000
  C   C163      1.0  0.23411  0.28551  0.69825  1.0000
  C   C164      1.0  0.76711  0.28512  0.80206  1.0000
  C   C165      1.0  0.25972  0.21949  0.84024  1.0000
  C   C166      1.0  0.74128  0.21843  0.67706  1.0000
  C   C167      1.0  0.76163  0.71755  0.82688  1.0000
  C   C168      1.0  0.24268  0.72029  0.66647  1.0000
  C   C169      1.0  0.75652  0.76374  0.72283  1.0000
  C   C170      1.0  0.24757  0.76624  0.77027  1.0000
  C   C171      1.0  0.25400  0.26555  0.73563  1.0000
  C   C172      1.0  0.74709  0.26485  0.77123  1.0000
  C   C173      1.0  0.23998  0.23952  0.80234  1.0000
  C   C174      1.0  0.76110  0.23876  0.70886  1.0000
  C   C175      1.0  0.74229  0.73762  0.78504  1.0000
  C   C176      1.0  0.26207  0.74062  0.70374  1.0000
  C   C177      1.0  0.68562  0.78057  0.70703  1.0000
  C   C178      1.0  0.31883  0.78448  0.76870  1.0000
  C   C179      1.0  0.18256  0.28249  0.73447  1.0000
  C   C180      1.0  0.81872  0.28267  0.76214  1.0000
  C   C181      1.0  0.31130  0.22222  0.80359  1.0000
  C   C182      1.0  0.68954  0.22083  0.71716  1.0000
  C   C183      1.0  0.81305  0.72056  0.80084  1.0000
  C   C184      1.0  0.19097  0.72204  0.70620  1.0000
  C   C185      1.0  0.67668  0.80962  0.79167  1.0000
  C   C186      1.0  0.32671  0.81368  0.68037  1.0000
  C   C187      1.0  0.17351  0.31094  0.82630  1.0000
  C   C188      1.0  0.82817  0.30945  0.65080  1.0000
  C   C189      1.0  0.31710  0.19098  0.74394  1.0000
  C   C190      1.0  0.68408  0.18951  0.78025  1.0000
  C   C191      1.0  0.81929  0.68944  0.74036  1.0000
  C   C192      1.0  0.18554  0.69097  0.77243  1.0000
  C   C193      1.0  0.64745  0.81772  0.78397  1.0000
  C   C194      1.0  0.35553  0.82323  0.68800  1.0000
  C   C195      1.0  0.14462  0.31969  0.81518  1.0000
  C   C196      1.0  0.85664  0.31988  0.65996  1.0000
  C   C197      1.0  0.34784  0.18341  0.70572  1.0000
  C   C198      1.0  0.65312  0.18257  0.83180  1.0000
  C   C199      1.0  0.84975  0.68178  0.71708  1.0000
  C   C200      1.0  0.15521  0.68253  0.79990  1.0000
  C   C201      1.0  0.63857  0.84728  0.86126  1.0000
  C   C202      1.0  0.36325  0.85300  0.60713  1.0000
  C   C203      1.0  0.13506  0.34834  0.90285  1.0000
  C   C204      1.0  0.86585  0.34714  0.55284  1.0000
  C   C205      1.0  0.35310  0.15159  0.66007  1.0000
  C   C206      1.0  0.64747  0.15050  0.87188  1.0000
  C   C207      1.0  0.85565  0.65003  0.67169  1.0000
  C   C208      1.0  0.15012  0.65079  0.85106  1.0000
  N   N1        1.0  0.63311  0.63435  0.28358  1.0000
  N   N2        1.0  0.36983  0.63774  0.19827  1.0000
  N   N3        1.0  0.13179  0.13521  0.30380  1.0000
  N   N4        1.0  0.86637  0.13491  0.21806  1.0000
  N   N5        1.0  0.36858  0.36721  0.20216  1.0000
  N   N6        1.0  0.62805  0.36446  0.31113  1.0000
  N   N7        1.0  0.86918  0.86625  0.22086  1.0000
  N   N8        1.0  0.13093  0.86724  0.30572  1.0000
  N   N9        1.0  0.71372  0.76751  0.24086  1.0000
  N   N10       1.0  0.28802  0.77064  0.24332  1.0000
  N   N11       1.0  0.21370  0.26757  0.25992  1.0000
  N   N12       1.0  0.78214  0.26501  0.24979  1.0000
  N   N13       1.0  0.29181  0.23075  0.26831  1.0000
  N   N14       1.0  0.70393  0.22798  0.25065  1.0000
  N   N15       1.0  0.79118  0.73134  0.26755  1.0000
  N   N16       1.0  0.21068  0.73246  0.23474  1.0000
  N   N17       1.0  0.50083  0.54419  0.23517  1.0000
  N   N18       1.0  0.99944  0.04461  0.25932  1.0000
  N   N19       1.0  0.49980  0.45926  0.24196  1.0000
  N   N20       1.0  0.99956  0.95959  0.26176  1.0000
  N   N21       1.0  0.46415  0.50206  0.19012  1.0000
  N   N22       1.0  0.53631  0.50137  0.28893  1.0000
  N   N23       1.0  0.96346  0.00203  0.21055  1.0000
  N   N24       1.0  0.03530  0.00208  0.31299  1.0000
  N   N25       1.0  0.63260  0.63359  0.78631  1.0000
  N   N26       1.0  0.37163  0.63654  0.68643  1.0000
  N   N27       1.0  0.13077  0.13551  0.81718  1.0000
  N   N28       1.0  0.87075  0.13517  0.68640  1.0000
  N   N29       1.0  0.36747  0.36684  0.71675  1.0000
  N   N30       1.0  0.63187  0.36435  0.78307  1.0000
  N   N31       1.0  0.86855  0.86616  0.72837  1.0000
  N   N32       1.0  0.13336  0.86665  0.79040  1.0000
  N   N33       1.0  0.71077  0.76886  0.73953  1.0000
  N   N34       1.0  0.29353  0.77218  0.74334  1.0000
  N   N35       1.0  0.20789  0.27056  0.76278  1.0000
  N   N36       1.0  0.79329  0.27001  0.74090  1.0000
  N   N37       1.0  0.28591  0.23414  0.77520  1.0000
  N   N38       1.0  0.71510  0.23304  0.74036  1.0000
  N   N39       1.0  0.78794  0.73239  0.76827  1.0000
  N   N40       1.0  0.21624  0.73444  0.73145  1.0000
  N   N41       1.0  0.50112  0.54215  0.74133  1.0000
  N   N42       1.0  0.00048  0.04289  0.76330  1.0000
  N   N43       1.0  0.50017  0.45716  0.74890  1.0000
  N   N44       1.0  0.00061  0.95791  0.76396  1.0000
  N   N45       1.0  0.46471  0.50007  0.69378  1.0000
  N   N46       1.0  0.53673  0.49928  0.79459  1.0000
  N   N47       1.0  0.96454  0.00037  0.71377  1.0000
  N   N48       1.0  0.03663  0.00045  0.81318  1.0000
  O   O1        1.0  0.74219  0.80620  0.11041  1.0000
  O   O2        1.0  0.25905  0.80803  0.38228  1.0000
  O   O3        1.0  0.24215  0.30596  0.12472  1.0000
  O   O4        1.0  0.75391  0.30330  0.38202  1.0000
  O   O5        1.0  0.26400  0.19177  0.39963  1.0000
  O   O6        1.0  0.73160  0.18892  0.12329  1.0000
  O   O7        1.0  0.76299  0.69267  0.39950  1.0000
  O   O8        1.0  0.23956  0.69539  0.09157  1.0000
  O   O9        1.0  0.73963  0.80749  0.60904  1.0000
  O   O10       1.0  0.26459  0.80969  0.88262  1.0000
  O   O11       1.0  0.23578  0.30899  0.62488  1.0000
  O   O12       1.0  0.76569  0.30904  0.86755  1.0000
  O   O13       1.0  0.25767  0.19605  0.91470  1.0000
  O   O14       1.0  0.74335  0.19464  0.60886  1.0000
  O   O15       1.0  0.75918  0.69398  0.90001  1.0000
  O   O16       1.0  0.24504  0.69700  0.59255  1.0000
  C   C209      1.0  0.60230  0.57430  0.16936  1.0000
  C   C210      1.0  0.57523  0.57304  0.27258  1.0000
  C  Sn1       1.0  0.56496  0.59500  0.38830  1.0000
  C  Sn2       1.0  0.58215  0.61864  0.40059  1.0000
  C   C211      1.0  0.60920  0.61971  0.29668  1.0000
  C   C212      1.0  0.61927  0.59762  0.18135  1.0000
  H   H193      1.0  0.61009  0.55722  0.08006  1.0000
  O  Te1       1.0  0.53786  0.59339  0.49051  1.0000
  O  Te2       1.0  0.57241  0.64088  0.51512  1.0000
  H   H194      1.0  0.64022  0.59861  0.10138  1.0000
  Mg  Mg1       1.0  0.53402  0.62897  0.62713  1.0000
  C   C213      1.0  0.43679  0.60797  0.05354  1.0000
  C   C214      1.0  0.43588  0.58374  0.15797  1.0000
  C  Sn3       1.0  0.41139  0.57620  0.27819  1.0000
  C  Sn4       1.0  0.38740  0.59326  0.29383  1.0000
  C   C215      1.0  0.38852  0.61745  0.18868  1.0000
  C   C216      1.0  0.41313  0.62481  0.06884  1.0000
  H   H195      1.0  0.41286  0.61212  0.96076  1.0000
  O  Te3       1.0  0.41084  0.55193  0.38155  1.0000
  O  Te4       1.0  0.36265  0.58621  0.41288  1.0000
  H   H196      1.0  0.37086  0.64202  0.98793  1.0000
  Mg  Mg2       1.0  0.37223  0.55111  0.52478  1.0000
  C   C217      1.0  0.10073  0.07489  0.19503  1.0000
  C   C218      1.0  0.07363  0.07395  0.29806  1.0000
  C  Sn5       1.0  0.06344  0.09625  0.41144  1.0000
  C  Sn6       1.0  0.08075  0.11991  0.42153  1.0000
  C   C219      1.0  0.10782  0.12065  0.31782  1.0000
  C   C220      1.0  0.11781  0.09822  0.20486  1.0000
  H   H197      1.0  0.10845  0.05754  0.10756  1.0000
  O  Te5       1.0  0.03633  0.09497  0.51350  1.0000
  O  Te6       1.0  0.07110  0.14249  0.53369  1.0000
  H   H198      1.0  0.13878  0.09896  0.12502  1.0000
  Mg  Mg3       1.0  0.03263  0.13094  0.64646  1.0000
  C   C221      1.0  0.88634  0.08471  0.32474  1.0000
  C   C222      1.0  0.88770  0.11105  0.23851  1.0000
  C  Sn7       1.0  0.91219  0.11967  0.12186  1.0000
  C  Sn8       1.0  0.93573  0.10153  0.09122  1.0000
  C   C223      1.0  0.93416  0.07521  0.17805  1.0000
  C   C224      1.0  0.90955  0.06680  0.29454  1.0000
  H   H199      1.0  0.86730  0.07819  0.41481  1.0000
  O  Te7       1.0  0.91318  0.14606  0.03685  1.0000
  O  Te8       1.0  0.91749  0.10808  0.97526  1.0000
  H   H200      1.0  0.90850  0.04640  0.36121  1.0000
  Mg  Mg4       1.0  0.90861  0.14607  0.89085  1.0000
  C   C225      1.0  0.43603  0.39611  0.07485  1.0000
  C   C226      1.0  0.43358  0.42242  0.15956  1.0000
  C  Sn9       1.0  0.40859  0.43019  0.27330  1.0000
  C  Sn10      1.0  0.38567  0.41123  0.30255  1.0000
  C   C227      1.0  0.38833  0.38496  0.21726  1.0000
  C   C228      1.0  0.41343  0.37740  0.10367  1.0000
  H   H201      1.0  0.41248  0.38872  0.98703  1.0000
  O  Te9       1.0  0.40650  0.45655  0.35682  1.0000
  O  Te10      1.0  0.36046  0.41846  0.41561  1.0000
  H   H202      1.0  0.41532  0.35702  0.03818  1.0000
  Mg  Mg5       1.0  0.36782  0.45677  0.49890  1.0000
  C   C229      1.0  0.60091  0.42660  0.18727  1.0000
  C   C230      1.0  0.57274  0.42710  0.27016  1.0000
  C  Sn11      1.0  0.56110  0.40554  0.38793  1.0000
  C  Sn12      1.0  0.57804  0.38308  0.42316  1.0000
  C   C231      1.0  0.60620  0.38278  0.33966  1.0000
  C   C232      1.0  0.61763  0.40447  0.22199  1.0000
  H   H203      1.0  0.60976  0.44338  0.09630  1.0000
  O  Te11      1.0  0.53292  0.40636  0.46955  1.0000
  O  Te12      1.0  0.56694  0.36127  0.54034  1.0000
  H   H204      1.0  0.63945  0.40408  0.15792  1.0000
  Mg  Mg6       1.0  0.52740  0.37177  0.61891  1.0000
  C   C233      1.0  0.93642  0.89573  0.09107  1.0000
  C   C234      1.0  0.93383  0.92202  0.17591  1.0000
  C  Sn13      1.0  0.90891  0.92949  0.29138  1.0000
  C  Sn14      1.0  0.88620  0.91022  0.32225  1.0000
  C   C235      1.0  0.88901  0.88395  0.23681  1.0000
  C   C236      1.0  0.91404  0.87670  0.12148  1.0000
  H   H205      1.0  0.95579  0.89011  0.00190  1.0000
  O  Te13      1.0  0.90667  0.95585  0.37502  1.0000
  O  Te14      1.0  0.86106  0.91714  0.43705  1.0000
  H   H206      1.0  0.91605  0.85633  0.05589  1.0000
  Mg  Mg7       1.0  0.86816  0.95558  0.51979  1.0000
  C   C237      1.0  0.07471  0.88541  0.44167  1.0000
  C   C238      1.0  0.10167  0.88388  0.33726  1.0000
  C  Sn15      1.0  0.11226  0.90613  0.22194  1.0000
  C  Sn16      1.0  0.09550  0.93034  0.21126  1.0000
  C   C239      1.0  0.06856  0.93168  0.31636  1.0000
  C   C240      1.0  0.05817  0.90929  0.43127  1.0000
  H   H207      1.0  0.06667  0.86810  0.53065  1.0000
  O  Te15      1.0  0.13924  0.90424  0.11853  1.0000
  O  Te16      1.0  0.10558  0.95288  0.09717  1.0000
  H   H208      1.0  0.03730  0.91049  0.51217  1.0000
  Mg  Mg8       1.0  0.10068  0.93887  0.98309  1.0000
  C   C241      1.0  0.69919  0.68394  0.22972  1.0000
  C   C242      1.0  0.69792  0.71119  0.30282  1.0000
  C  Sn17      1.0  0.67423  0.71980  0.42574  1.0000
  C  Sn18      1.0  0.65143  0.70073  0.47619  1.0000
  C   C243      1.0  0.65292  0.67350  0.40238  1.0000
  C   C244      1.0  0.67672  0.66511  0.27946  1.0000
  H   H209      1.0  0.71761  0.67744  0.13468  1.0000
  O  Te17      1.0  0.67330  0.74710  0.49743  1.0000
  O  Te18      1.0  0.62751  0.70878  0.59881  1.0000
  H   H210      1.0  0.67771  0.64401  0.22297  1.0000
  Mg  Mg9       1.0  0.63615  0.74822  0.65951  1.0000
  C   C245      1.0  0.31541  0.67690  0.25202  1.0000
  C   C246      1.0  0.34105  0.67595  0.13167  1.0000
  C  Sn19      1.0  0.34994  0.69917  0.02046  1.0000
  C  Sn20      1.0  0.33281  0.72377  0.03026  1.0000
  C   C247      1.0  0.30720  0.72451  0.15120  1.0000
  C   C248      1.0  0.29850  0.70115  0.26182  1.0000
  H   H211      1.0  0.30868  0.65883  0.33768  1.0000
  O  Te19      1.0  0.33264  0.69633  0.90094  1.0000
  O  Te20      1.0  0.29822  0.74575  0.92071  1.0000
  H   H212      1.0  0.27866  0.70190  0.35506  1.0000
  Mg  Mg10      1.0  0.33495  0.73377  0.77944  1.0000
  C   C249      1.0  0.18648  0.17397  0.24794  1.0000
  C   C250      1.0  0.16102  0.17276  0.37002  1.0000
  C  Sn21      1.0  0.15250  0.19552  0.48283  1.0000
  C  Sn22      1.0  0.16982  0.21992  0.47288  1.0000
  C   C251      1.0  0.19525  0.22093  0.35021  1.0000
  C   C252      1.0  0.20358  0.19803  0.23800  1.0000
  H   H213      1.0  0.19292  0.15626  0.16105  1.0000
  O  Te21      1.0  0.12700  0.19396  0.60407  1.0000
  O  Te22      1.0  0.16181  0.24298  0.58400  1.0000
  H   H214      1.0  0.22329  0.19898  0.14341  1.0000
  Mg  Mg11      1.0  0.12519  0.23079  0.72731  1.0000
  C   C253      1.0  0.84328  0.20531  0.00019  1.0000
  C   C254      1.0  0.84472  0.18050  0.09590  1.0000
  C  Sn23      1.0  0.82227  0.17235  0.23027  1.0000
  C  Sn24      1.0  0.79797  0.18939  0.26920  1.0000
  C   C255      1.0  0.79673  0.21417  0.17260  1.0000
  C   C256      1.0  0.81931  0.22213  0.03846  1.0000
  H   H215      1.0  0.81777  0.20993  0.89634  1.0000
  O  Te23      1.0  0.82406  0.14750  0.32464  1.0000
  O  Te24      1.0  0.77523  0.18174  0.40276  1.0000
  H   H216      1.0  0.77522  0.23980  0.96430  1.0000
  Mg  Mg12      1.0  0.78763  0.14599  0.49443  1.0000
  C   C257      1.0  0.31463  0.32777  0.23946  1.0000
  C   C258      1.0  0.34241  0.32675  0.14833  1.0000
  C  Sn25      1.0  0.35312  0.30222  0.05598  1.0000
  C  Sn26      1.0  0.33564  0.27830  0.05506  1.0000
  C   C259      1.0  0.30787  0.27954  0.14655  1.0000
  C   C260      1.0  0.29736  0.30419  0.23857  1.0000
  H   H217      1.0  0.30649  0.34685  0.31059  1.0000
  O  Te25      1.0  0.33796  0.30002  0.96567  1.0000
  O  Te26      1.0  0.30283  0.25198  0.96379  1.0000
  H   H218      1.0  0.27585  0.30499  0.30903  1.0000
  Mg  Mg13      1.0  0.34218  0.26140  0.86065  1.0000
  C   C261      1.0  0.69164  0.31322  0.26237  1.0000
  C   C262      1.0  0.69028  0.28597  0.33845  1.0000
  C  Sn27      1.0  0.66573  0.27640  0.45070  1.0000
  C  Sn28      1.0  0.64212  0.29448  0.48717  1.0000
  C   C263      1.0  0.64368  0.32170  0.41030  1.0000
  C   C264      1.0  0.66836  0.33107  0.29822  1.0000
  H   H219      1.0  0.71072  0.32047  0.17557  1.0000
  O  Te27      1.0  0.66474  0.24912  0.52566  1.0000
  O  Te28      1.0  0.61732  0.28544  0.59883  1.0000
  H   H220      1.0  0.66940  0.35216  0.23924  1.0000
  Mg  Mg14      1.0  0.62624  0.24646  0.66928  1.0000
  C   C265      1.0  0.80453  0.81527  0.27298  1.0000
  C   C266      1.0  0.80532  0.78920  0.18744  1.0000
  C  Sn29      1.0  0.82954  0.78046  0.06957  1.0000
  C  Sn30      1.0  0.85337  0.79819  0.03703  1.0000
  C   C267      1.0  0.85237  0.82422  0.12336  1.0000
  C   C268      1.0  0.82803  0.83276  0.24101  1.0000
  H   H221      1.0  0.78571  0.82187  0.36408  1.0000
  O  Te29      1.0  0.78700  0.75282  0.98518  1.0000
  O  Te30      1.0  0.83487  0.78843  0.91991  1.0000
  H   H222      1.0  0.82743  0.85294  0.30730  1.0000
  Mg  Mg15      1.0  0.82521  0.75095  0.83696  1.0000
  C   C269      1.0  0.15952  0.77976  0.47590  1.0000
  C   C270      1.0  0.18531  0.77934  0.35685  1.0000
  C  Sn31      1.0  0.19514  0.80383  0.25874  1.0000
  C  Sn32      1.0  0.17881  0.82919  0.28055  1.0000
  C   C271      1.0  0.15305  0.82940  0.40008  1.0000
  C   C272      1.0  0.14340  0.80476  0.49754  1.0000
  H   H223      1.0  0.15206  0.76071  0.55138  1.0000
  O  Te31      1.0  0.22094  0.80304  0.14033  1.0000
  O  Te32      1.0  0.18814  0.85397  0.18423  1.0000
  H   H224      1.0  0.12345  0.80510  0.58978  1.0000
  Mg  Mg16      1.0  0.22468  0.84226  0.03911  1.0000
  C   C273      1.0  0.60281  0.57285  0.67094  1.0000
  C   C274      1.0  0.57573  0.57119  0.77381  1.0000
  C  Sn33      1.0  0.56504  0.59314  0.88872  1.0000
  C  Sn34      1.0  0.58181  0.61717  0.90055  1.0000
  C   C275      1.0  0.60886  0.61863  0.79699  1.0000
  C   C276      1.0  0.61936  0.59655  0.68248  1.0000
  H   H225      1.0  0.61092  0.55577  0.58227  1.0000
  O  Te33      1.0  0.53795  0.59114  0.99059  1.0000
  O  Te34      1.0  0.61461  0.64095  0.01427  1.0000
  H   H226      1.0  0.64032  0.59784  0.60277  1.0000
  Mg  Mg17      1.0  0.57641  0.62842  0.12608  1.0000
  C   C277      1.0  0.38888  0.58529  0.79843  1.0000
  C   C278      1.0  0.39170  0.61166  0.71144  1.0000
  C  Sn35      1.0  0.41681  0.61919  0.59726  1.0000
  C  Sn36      1.0  0.43948  0.59990  0.56990  1.0000
  C   C279      1.0  0.43644  0.57356  0.65746  1.0000
  C   C280      1.0  0.41123  0.56625  0.77146  1.0000
  H   H227      1.0  0.36937  0.57962  0.88656  1.0000
  O  Te35      1.0  0.41927  0.64562  0.51146  1.0000
  O  Te36      1.0  0.46480  0.60688  0.45646  1.0000
  H   H228      1.0  0.40905  0.54583  0.83871  1.0000
  Mg  Mg18      1.0  0.45797  0.64541  0.36974  1.0000
  C   C281      1.0  0.11318  0.08515  0.70162  1.0000
  C   C282      1.0  0.11055  0.11114  0.78969  1.0000
  C  Sn37      1.0  0.08545  0.11857  0.90335  1.0000
  C  Sn38      1.0  0.06258  0.09959  0.92908  1.0000
  C   C283      1.0  0.06543  0.07364  0.84046  1.0000
  C   C284      1.0  0.09064  0.06642  0.72698  1.0000
  H   H229      1.0  0.13269  0.07956  0.61390  1.0000
  O  Te37      1.0  0.08317  0.14462  0.99024  1.0000
  O  Te38      1.0  0.08023  0.10802  0.04197  1.0000
  H   H230      1.0  0.09268  0.04629  0.65890  1.0000
  Mg  Mg19      1.0  0.08736  0.14598  0.13064  1.0000
  C   C285      1.0  0.89920  0.07480  0.82052  1.0000
  C   C286      1.0  0.92649  0.07267  0.72175  1.0000
  C  Sn39      1.0  0.93782  0.09416  0.60271  1.0000
  C  Sn40      1.0  0.92148  0.11822  0.58249  1.0000
  C   C287      1.0  0.89420  0.12016  0.68201  1.0000
  C   C288      1.0  0.88307  0.09852  0.80071  1.0000
  H   H231      1.0  0.89059  0.05807  0.91243  1.0000
  O  Te39      1.0  0.96512  0.09169  0.50502  1.0000
  O  Te40      1.0  0.93229  0.14001  0.46451  1.0000
  H   H232      1.0  0.86194  0.10019  0.87725  1.0000
  Mg  Mg20      1.0  0.97055  0.12693  0.36106  1.0000
  C   C289      1.0  0.38732  0.41689  0.82120  1.0000
  C   C290      1.0  0.38772  0.39268  0.71992  1.0000
  C  Sn41      1.0  0.41220  0.38425  0.60338  1.0000
  C  Sn42      1.0  0.43669  0.40039  0.58829  1.0000
  C   C291      1.0  0.43608  0.42457  0.69028  1.0000
  C   C292      1.0  0.41147  0.43282  0.80644  1.0000
  H   H233      1.0  0.36829  0.42327  0.91115  1.0000
  O  Te41      1.0  0.41223  0.36002  0.50313  1.0000
  O  Te42      1.0  0.46144  0.39244  0.47289  1.0000
  H   H234      1.0  0.41117  0.45155  0.88492  1.0000
  Mg  Mg21      1.0  0.45105  0.35777  0.36432  1.0000
  C   C293      1.0  0.60153  0.42622  0.68244  1.0000
  C   C294      1.0  0.57357  0.42529  0.77017  1.0000
  C  Sn43      1.0  0.56332  0.40272  0.88381  1.0000
  C  Sn44      1.0  0.58144  0.38071  0.90988  1.0000
  C   C295      1.0  0.60938  0.38185  0.82159  1.0000
  C   C296      1.0  0.61942  0.40453  0.70812  1.0000
  H   H235      1.0  0.60930  0.44378  0.59471  1.0000
  O  Te43      1.0  0.53532  0.40211  0.97037  1.0000
  O  Te44      1.0  0.61471  0.35944  0.02278  1.0000
  H   H236      1.0  0.64107  0.40526  0.64030  1.0000
  Mg  Mg22      1.0  0.57489  0.36812  0.11091  1.0000
  C   C297      1.0  0.93657  0.89388  0.59552  1.0000
  C   C298      1.0  0.93457  0.92056  0.67596  1.0000
  C  Sn45      1.0  0.90977  0.92902  0.78905  1.0000
  C  Sn46      1.0  0.88657  0.91039  0.82201  1.0000
  C   C299      1.0  0.88878  0.88374  0.74099  1.0000
  C   C300      1.0  0.91370  0.87549  0.62800  1.0000
  H   H237      1.0  0.95585  0.88749  0.50817  1.0000
  O  Te45      1.0  0.90813  0.95575  0.86828  1.0000
  O  Te46      1.0  0.86153  0.91831  0.93452  1.0000
  H   H238      1.0  0.91525  0.85483  0.56583  1.0000
  Mg  Mg23      1.0  0.91250  0.95843  0.01132  1.0000
  C   C301      1.0  0.07731  0.88422  0.93901  1.0000
  C   C302      1.0  0.10389  0.88291  0.82926  1.0000
  C  Sn47      1.0  0.11361  0.90513  0.71200  1.0000
  C  Sn48      1.0  0.09637  0.92909  0.70480  1.0000
  C   C303      1.0  0.06983  0.93021  0.81523  1.0000
  C   C304      1.0  0.06030  0.90785  0.93205  1.0000
  H   H239      1.0  0.11292  0.86847  0.02946  1.0000
  O  Te47      1.0  0.14021  0.90346  0.60324  1.0000
  O  Te48      1.0  0.10558  0.95160  0.58887  1.0000
  H   H240      1.0  0.08270  0.91042  0.01708  1.0000
  Mg  Mg24      1.0  0.14342  0.93948  0.46718  1.0000
  C   C305      1.0  0.69775  0.68427  0.73963  1.0000
  C   C306      1.0  0.69557  0.71195  0.80787  1.0000
  C  Sn49      1.0  0.67134  0.72053  0.92617  1.0000
  C  Sn50      1.0  0.64892  0.70099  0.97688  1.0000
  C   C307      1.0  0.65132  0.67335  0.90796  1.0000
  C   C308      1.0  0.67565  0.66498  0.78963  1.0000
  H   H241      1.0  0.71659  0.67779  0.64815  1.0000
  O  Te49      1.0  0.66950  0.74826  0.99304  1.0000
  O  Te50      1.0  0.66744  0.71054  0.09495  1.0000
  H   H242      1.0  0.67734  0.64355  0.73690  1.0000
  Mg  Mg25      1.0  0.67488  0.75067  0.15001  1.0000
  C   C309      1.0  0.31826  0.67646  0.72985  1.0000
  C   C310      1.0  0.34446  0.67582  0.61542  1.0000
  C  Sn51      1.0  0.35466  0.69998  0.51514  1.0000
  C  Sn52      1.0  0.33827  0.72523  0.53001  1.0000
  C   C311      1.0  0.31208  0.72566  0.64495  1.0000
  C   C312      1.0  0.30208  0.70136  0.74465  1.0000
  H   H243      1.0  0.31052  0.65766  0.80706  1.0000
  O  Te51      1.0  0.38089  0.69896  0.40141  1.0000
  O  Te52      1.0  0.34796  0.74969  0.43137  1.0000
  H   H244      1.0  0.28179  0.70187  0.83331  1.0000
  Mg  Mg26      1.0  0.38501  0.73777  0.29459  1.0000
  C   C313      1.0  0.18428  0.17467  0.78147  1.0000
  C   C314      1.0  0.15778  0.17410  0.89263  1.0000
  C  Sn53      1.0  0.14734  0.19829  0.98934  1.0000
  C  Sn54      1.0  0.16377  0.22348  0.97418  1.0000
  C   C315      1.0  0.19024  0.22385  0.86252  1.0000
  C   C316      1.0  0.20049  0.19952  0.76639  1.0000
  H   H245      1.0  0.19221  0.15586  0.70701  1.0000
  O  Te53      1.0  0.16380  0.19888  0.09983  1.0000
  O  Te54      1.0  0.19681  0.24950  0.06928  1.0000
  H   H246      1.0  0.22100  0.19997  0.68025  1.0000
  Mg  Mg27      1.0  0.15941  0.23768  0.20248  1.0000
  C   C317      1.0  0.80587  0.18461  0.72310  1.0000
  C   C318      1.0  0.80812  0.21314  0.66502  1.0000
  C  Sn55      1.0  0.83275  0.22309  0.55520  1.0000
  C  Sn56      1.0  0.85550  0.20407  0.50272  1.0000
  C   C319      1.0  0.85303  0.17555  0.56143  1.0000
  C   C320      1.0  0.82830  0.16583  0.67134  1.0000
  H   H247      1.0  0.78673  0.17707  0.80806  1.0000
  O  Te55      1.0  0.83465  0.25167  0.49844  1.0000
  O  Te56      1.0  0.88035  0.21345  0.39297  1.0000
  H   H248      1.0  0.82655  0.14373  0.71620  1.0000
  Mg  Mg28      1.0  0.87284  0.25432  0.35026  1.0000
  C   C321      1.0  0.31231  0.32858  0.77110  1.0000
  C   C322      1.0  0.33931  0.32765  0.66687  1.0000
  C  Sn57      1.0  0.34814  0.30432  0.55898  1.0000
  C  Sn58      1.0  0.32954  0.28152  0.55563  1.0000
  C   C323      1.0  0.30256  0.28265  0.66031  1.0000
  C   C324      1.0  0.29394  0.30610  0.76782  1.0000
  H   H249      1.0  0.30563  0.34672  0.85423  1.0000
  O  Te57      1.0  0.37520  0.30373  0.45572  1.0000
  O  Te58      1.0  0.33782  0.25795  0.44895  1.0000
  H   H250      1.0  0.27303  0.30682  0.84843  1.0000
  Mg  Mg29      1.0  0.37677  0.26698  0.33199  1.0000
  C   C325      1.0  0.68732  0.32682  0.72770  1.0000
  C   C326      1.0  0.66064  0.32572  0.83633  1.0000
  C  Sn59      1.0  0.65262  0.30267  0.95007  1.0000
  C  Sn60      1.0  0.67173  0.28033  0.95488  1.0000
  C   C327      1.0  0.69838  0.28164  0.84576  1.0000
  C   C328      1.0  0.70618  0.30480  0.73241  1.0000
  H   H251      1.0  0.69336  0.34475  0.64006  1.0000
  O  Te59      1.0  0.66886  0.30344  0.05767  1.0000
  O  Te60      1.0  0.70724  0.25858  0.06735  1.0000
  H   H252      1.0  0.72684  0.30565  0.64839  1.0000
  Mg  Mg30      1.0  0.66843  0.26721  0.18868  1.0000
  C   C329      1.0  0.80308  0.81515  0.79071  1.0000
  C   C330      1.0  0.80284  0.79017  0.69673  1.0000
  C  Sn61      1.0  0.82625  0.78217  0.56966  1.0000
  C  Sn62      1.0  0.85032  0.79955  0.53638  1.0000
  C   C331      1.0  0.85036  0.82449  0.63119  1.0000
  C   C332      1.0  0.82682  0.83229  0.75802  1.0000
  H   H253      1.0  0.78487  0.82118  0.88890  1.0000
  O  Te61      1.0  0.82565  0.75716  0.47692  1.0000
  O  Te62      1.0  0.87401  0.79206  0.41016  1.0000
  H   H254      1.0  0.82702  0.85162  0.83083  1.0000
  Mg  Mg31      1.0  0.86307  0.75597  0.31795  1.0000
  C   C333      1.0  0.16593  0.78242  0.97526  1.0000
  C   C334      1.0  0.19076  0.78129  0.84759  1.0000
  C  Sn63      1.0  0.19904  0.80459  0.73610  1.0000
  C  Sn64      1.0  0.18210  0.82946  0.75308  1.0000
  C   C335      1.0  0.15731  0.83039  0.88130  1.0000
  C   C336      1.0  0.14922  0.80695  0.99214  1.0000
  H   H255      1.0  0.20265  0.76582  0.06108  1.0000
  O  Te63      1.0  0.22390  0.80310  0.60922  1.0000
  O  Te64      1.0  0.18989  0.85307  0.64342  1.0000
  H   H256      1.0  0.17298  0.80937  0.09105  1.0000
  Mg  Mg32      1.0  0.22561  0.84076  0.49065  1.0000
