data_image0
_chemical_formula_structural       H200C208N48O16SnCSn2CSnTe4Mg2SnCSn2CSnTe4Mg2SnCSn2CSnTe4Mg2SnCSn2CSnTe4Mg2SnCSn2CSnTe4Mg2SnCSn2CSnTe4Mg2SnCSn2CSnTe4Mg2SnCSn2CSnTe4Mg2SnCSn2CSnTe4Mg2SnCSn2CSnTe4Mg2SnCSn2CSnTe4Mg2SnCSn2CSnTe4Mg2SnCSn2CSnTe4Mg2SnCSn2CSnTe4Mg2SnCSn2CSnTe4Mg2SnCSn2CSnTe4Mg2SnCSn2CSnTe4Mg2SnCSn2CSnTe4Mg2SnCSn2CSnTe4Mg2SnCSn2CSnTe4Mg2SnCSn2CSnTe4Mg2SnCSn2CSnTe4Mg2SnCSn2CSnTe4Mg2SnCSn2CSnTe4Mg2SnCSn2CSnTe4Mg2SnCSn2CSnTe4Mg2SnCSn2CSnTe4Mg2SnCSn2CSnTe4Mg2SnCSn2CSnTe4Mg2SnCSn2CSnTe4Mg2SnCSn2CSnTe4Mg2SnCSn2CSnTe4Mg2
_chemical_formula_sum              "H200 C272 N48 O16 Sn128 Te128 Mg64"
_cell_length_a       47.3513
_cell_length_b       48.2059
_cell_length_c       8.17915
_cell_angle_alpha    88.6675
_cell_angle_beta     86.8316
_cell_angle_gamma    89.8936

_symmetry_space_group_name_H-M    'P1'
_space_group_IT_number       1

loop_
  _space_group_symop_operation_xyz
  'x, y, z'

loop_
  _atom_site_type_symbol
  _atom_site_label
  _atom_site_symmetry_multiplicity
  _atom_site_fract_x
  _atom_site_fract_y
  _atom_site_fract_z
  _atom_site_occupancy
  H   H1        1.0  0.47310  0.60725  0.18420  1.0000
  H   H2        1.0  0.52546  0.60756  0.29107  1.0000
  H   H3        1.0  0.52706  0.39437  0.31060  1.0000
  H   H4        1.0  0.47467  0.39394  0.20546  1.0000
  H   H5        1.0  0.97406  0.10782  0.17835  1.0000
  H   H6        1.0  0.02584  0.10756  0.29043  1.0000
  H   H7        1.0  0.02624  0.89422  0.32092  1.0000
  H   H8        1.0  0.97435  0.89435  0.21011  1.0000
  H   H9        1.0  0.40407  0.52695  0.49406  1.0000
  H   H10       1.0  0.59627  0.52825  0.99918  1.0000
  H   H11       1.0  0.59685  0.47265  0.00645  1.0000
  H   H12       1.0  0.40483  0.47122  0.49892  1.0000
  H   H13       1.0  0.90407  0.02668  0.49560  1.0000
  H   H14       1.0  0.09570  0.02786  0.00883  1.0000
  H   H15       1.0  0.09599  0.97213  0.01507  1.0000
  H   H16       1.0  0.90431  0.97091  0.50402  1.0000
  H   H17       1.0  0.62193  0.65636  0.56859  1.0000
  H   H18       1.0  0.38105  0.66241  0.94099  1.0000
  H   H19       1.0  0.38101  0.34119  0.94407  1.0000
  H   H20       1.0  0.60982  0.33468  0.51363  1.0000
  H   H21       1.0  0.11661  0.15972  0.57430  1.0000
  H   H22       1.0  0.88193  0.16389  0.93631  1.0000
  H   H23       1.0  0.88145  0.84377  0.93079  1.0000
  H   H24       1.0  0.10721  0.83298  0.49610  1.0000
  H   H25       1.0  0.66757  0.76566  0.29462  1.0000
  H   H26       1.0  0.33082  0.76606  0.23364  1.0000
  H   H27       1.0  0.33332  0.23292  0.25176  1.0000
  H   H28       1.0  0.66394  0.23149  0.25095  1.0000
  H   H29       1.0  0.16389  0.26916  0.27125  1.0000
  H   H30       1.0  0.83295  0.26845  0.23445  1.0000
  H   H31       1.0  0.83715  0.73121  0.18995  1.0000
  H   H32       1.0  0.16140  0.73019  0.23529  1.0000
  H   H33       1.0  0.67874  0.78133  0.10492  1.0000
  H   H34       1.0  0.31679  0.78103  0.41573  1.0000
  H   H35       1.0  0.31925  0.21772  0.43745  1.0000
  H   H36       1.0  0.68033  0.21452  0.08086  1.0000
  H   H37       1.0  0.17739  0.28470  0.08543  1.0000
  H   H38       1.0  0.81928  0.28451  0.41395  1.0000
  H   H39       1.0  0.82758  0.71877  0.38922  1.0000
  H   H40       1.0  0.17852  0.71247  0.07114  1.0000
  H   H41       1.0  0.69266  0.82357  0.22745  1.0000
  H   H42       1.0  0.30414  0.82341  0.28175  1.0000
  H   H43       1.0  0.30598  0.17566  0.30980  1.0000
  H   H44       1.0  0.69282  0.17432  0.24519  1.0000
  H   H45       1.0  0.19161  0.32619  0.21322  1.0000
  H   H46       1.0  0.80506  0.32565  0.26738  1.0000
  H   H47       1.0  0.81083  0.67492  0.29248  1.0000
  H   H48       1.0  0.18999  0.67307  0.24456  1.0000
  H   H49       1.0  0.69075  0.80916  0.42526  1.0000
  H   H50       1.0  0.30817  0.80980  0.08601  1.0000
  H   H51       1.0  0.31158  0.18962  0.11203  1.0000
  H   H52       1.0  0.68063  0.18950  0.42792  1.0000
  H   H53       1.0  0.18756  0.31174  0.41061  1.0000
  H   H54       1.0  0.81049  0.31049  0.07658  1.0000
  H   H55       1.0  0.81384  0.68589  0.08769  1.0000
  H   H56       1.0  0.17720  0.68933  0.42304  1.0000
  H   H57       1.0  0.63786  0.80304  0.41156  1.0000
  H   H58       1.0  0.36069  0.80492  0.11405  1.0000
  H   H59       1.0  0.36393  0.19401  0.15494  1.0000
  H   H60       1.0  0.63118  0.19100  0.33338  1.0000
  H   H61       1.0  0.13479  0.30816  0.38448  1.0000
  H   H62       1.0  0.86298  0.30705  0.11805  1.0000
  H   H63       1.0  0.86703  0.69042  0.10494  1.0000
  H   H64       1.0  0.12818  0.69105  0.31793  1.0000
  H   H65       1.0  0.63964  0.81635  0.20980  1.0000
  H   H66       1.0  0.35715  0.81654  0.31573  1.0000
  H   H67       1.0  0.35835  0.18104  0.35629  1.0000
  H   H68       1.0  0.64279  0.17802  0.14282  1.0000
  H   H69       1.0  0.13853  0.32155  0.18314  1.0000
  H   H70       1.0  0.85776  0.32154  0.31212  1.0000
  H   H71       1.0  0.86388  0.68044  0.31259  1.0000
  H   H72       1.0  0.14065  0.67533  0.13667  1.0000
  H   H73       1.0  0.65307  0.84934  0.01740  1.0000
  H   H74       1.0  0.34651  0.86725  0.69053  1.0000
  H   H75       1.0  0.37910  0.14219  0.67323  1.0000
  H   H76       1.0  0.65919  0.14747  0.96147  1.0000
  H   H77       1.0  0.15554  0.35099  0.98892  1.0000
  H   H78       1.0  0.85015  0.35732  0.48326  1.0000
  H   H79       1.0  0.84086  0.63548  0.70165  1.0000
  H   H80       1.0  0.15540  0.64795  0.95084  1.0000
  H   H81       1.0  0.65670  0.86246  0.30663  1.0000
  H   H82       1.0  0.34027  0.86321  0.21662  1.0000
  H   H83       1.0  0.34093  0.13554  0.24937  1.0000
  H   H84       1.0  0.62186  0.13957  0.32353  1.0000
  H   H85       1.0  0.15772  0.36652  0.28619  1.0000
  H   H86       1.0  0.87409  0.35793  0.09772  1.0000
  H   H87       1.0  0.87809  0.63937  0.14357  1.0000
  H   H88       1.0  0.15459  0.63252  0.29821  1.0000
  H   H89       1.0  0.65556  0.84927  0.51042  1.0000
  H   H90       1.0  0.34188  0.85168  0.01278  1.0000
  H   H91       1.0  0.34671  0.14853  0.04642  1.0000
  H   H92       1.0  0.65841  0.13339  0.28043  1.0000
  H   H93       1.0  0.15410  0.35317  0.48938  1.0000
  H   H94       1.0  0.84013  0.36597  0.18661  1.0000
  H   H95       1.0  0.84384  0.63390  0.23768  1.0000
  H   H96       1.0  0.14216  0.64823  0.48173  1.0000
  H   H97       1.0  0.49991  0.47782  0.24795  1.0000
  H   H98       1.0  0.50015  0.52376  0.24525  1.0000
  H   H99       1.0  0.97828  0.00150  0.21456  1.0000
  H   H100      1.0  0.02167  0.00042  0.28785  1.0000
  H   H101      1.0  0.47339  0.60606  0.68295  1.0000
  H   H102      1.0  0.52602  0.60634  0.78590  1.0000
  H   H103      1.0  0.52729  0.39330  0.81873  1.0000
  H   H104      1.0  0.47485  0.39315  0.71281  1.0000
  H   H105      1.0  0.97335  0.10575  0.68544  1.0000
  H   H106      1.0  0.02535  0.10632  0.79395  1.0000
  H   H107      1.0  0.02665  0.89285  0.82767  1.0000
  H   H108      1.0  0.97467  0.89247  0.71698  1.0000
  H   H109      1.0  0.40392  0.52832  0.99152  1.0000
  H   H110      1.0  0.59549  0.52876  0.50213  1.0000
  H   H111      1.0  0.59580  0.47315  0.50638  1.0000
  H   H112      1.0  0.40438  0.47273  0.99399  1.0000
  H   H113      1.0  0.90454  0.02859  0.98551  1.0000
  H   H114      1.0  0.09476  0.02904  0.51094  1.0000
  H   H115      1.0  0.09552  0.97331  0.51596  1.0000
  H   H116      1.0  0.90508  0.97288  0.99235  1.0000
  H   H117      1.0  0.61478  0.66071  0.05998  1.0000
  H   H118      1.0  0.39066  0.66540  0.47982  1.0000
  H   H119      1.0  0.38791  0.33624  0.47003  1.0000
  H   H120      1.0  0.61930  0.33740  0.05136  1.0000
  H   H121      1.0  0.11691  0.16047  0.06512  1.0000
  H   H122      1.0  0.89268  0.16702  0.47619  1.0000
  H   H123      1.0  0.88578  0.83680  0.44728  1.0000
  H   H124      1.0  0.11664  0.83522  0.03605  1.0000
  H   H125      1.0  0.66465  0.76699  0.78186  1.0000
  H   H126      1.0  0.33826  0.76975  0.73511  1.0000
  H   H127      1.0  0.33557  0.23119  0.75727  1.0000
  H   H128      1.0  0.67029  0.23439  0.75619  1.0000
  H   H129      1.0  0.16641  0.26813  0.76283  1.0000
  H   H130      1.0  0.83963  0.27282  0.71951  1.0000
  H   H131      1.0  0.83495  0.73336  0.74876  1.0000
  H   H132      1.0  0.16871  0.73453  0.74194  1.0000
  H   H133      1.0  0.67807  0.78395  0.60048  1.0000
  H   H134      1.0  0.32228  0.78689  0.90510  1.0000
  H   H135      1.0  0.32056  0.21516  0.93776  1.0000
  H   H136      1.0  0.68463  0.22009  0.57281  1.0000
  H   H137      1.0  0.18020  0.28415  0.57900  1.0000
  H   H138      1.0  0.82533  0.28844  0.89835  1.0000
  H   H139      1.0  0.82022  0.71433  0.92024  1.0000
  H   H140      1.0  0.18323  0.71990  0.56025  1.0000
  H   H141      1.0  0.69123  0.82476  0.74014  1.0000
  H   H142      1.0  0.31081  0.82740  0.74625  1.0000
  H   H143      1.0  0.30816  0.17379  0.79988  1.0000
  H   H144      1.0  0.69933  0.17802  0.70744  1.0000
  H   H145      1.0  0.19419  0.32525  0.71312  1.0000
  H   H146      1.0  0.81104  0.32962  0.75491  1.0000
  H   H147      1.0  0.80615  0.67637  0.74722  1.0000
  H   H148      1.0  0.19477  0.67699  0.69138  1.0000
  H   H149      1.0  0.68715  0.80873  0.93351  1.0000
  H   H150      1.0  0.32002  0.81197  0.55938  1.0000
  H   H151      1.0  0.31516  0.18870  0.60503  1.0000
  H   H152      1.0  0.69205  0.19078  0.90334  1.0000
  H   H153      1.0  0.18998  0.30994  0.90844  1.0000
  H   H154      1.0  0.81666  0.31516  0.56221  1.0000
  H   H155      1.0  0.81829  0.69423  0.56853  1.0000
  H   H156      1.0  0.19032  0.69003  0.88835  1.0000
  H   H157      1.0  0.63464  0.80434  0.90358  1.0000
  H   H158      1.0  0.37074  0.80860  0.63143  1.0000
  H   H159      1.0  0.36676  0.19303  0.65919  1.0000
  H   H160      1.0  0.64003  0.19325  0.85171  1.0000
  H   H161      1.0  0.13738  0.30574  0.87780  1.0000
  H   H162      1.0  0.86893  0.31197  0.60065  1.0000
  H   H163      1.0  0.86799  0.69364  0.66405  1.0000
  H   H164      1.0  0.13803  0.69548  0.85693  1.0000
  H   H165      1.0  0.63833  0.81903  0.70518  1.0000
  H   H166      1.0  0.36222  0.82245  0.82444  1.0000
  H   H167      1.0  0.36019  0.17970  0.85901  1.0000
  H   H168      1.0  0.64698  0.18207  0.65096  1.0000
  H   H169      1.0  0.14129  0.31992  0.67839  1.0000
  H   H170      1.0  0.86393  0.32491  0.79887  1.0000
  H   H171      1.0  0.85602  0.67770  0.84995  1.0000
  H   H172      1.0  0.14191  0.68518  0.65287  1.0000
  H   H173      1.0  0.62376  0.85333  0.40700  1.0000
  H   H174      1.0  0.37347  0.85525  0.11751  1.0000
  H   H175      1.0  0.37583  0.14305  0.17085  1.0000
  H   H176      1.0  0.64655  0.14629  0.47309  1.0000
  H   H177      1.0  0.12359  0.35929  0.37723  1.0000
  H   H178      1.0  0.84332  0.35149  0.98999  1.0000
  H   H179      1.0  0.84770  0.64366  0.02816  1.0000
  H   H180      1.0  0.11803  0.63974  0.33243  1.0000
  H   H181      1.0  0.62180  0.85476  0.91106  1.0000
  H   H182      1.0  0.35461  0.85341  0.49510  1.0000
  H   H183      1.0  0.34402  0.13422  0.74663  1.0000
  H   H184      1.0  0.63071  0.14187  0.83406  1.0000
  H   H185      1.0  0.12469  0.35629  0.87854  1.0000
  H   H186      1.0  0.88014  0.36294  0.59897  1.0000
  H   H187      1.0  0.85222  0.65128  0.51197  1.0000
  H   H188      1.0  0.12497  0.64498  0.83523  1.0000
  H   H189      1.0  0.65519  0.86393  0.81666  1.0000
  H   H190      1.0  0.38208  0.85960  0.62839  1.0000
  H   H191      1.0  0.35049  0.14759  0.54487  1.0000
  H   H192      1.0  0.66609  0.13656  0.75846  1.0000
  H   H193      1.0  0.15841  0.36504  0.78700  1.0000
  H   H194      1.0  0.84574  0.37022  0.68370  1.0000
  H   H195      1.0  0.87730  0.64237  0.65782  1.0000
  H   H196      1.0  0.15906  0.63789  0.74448  1.0000
  H   H197      1.0  0.50093  0.47686  0.75248  1.0000
  H   H198      1.0  0.50004  0.52256  0.74782  1.0000
  H   H199      1.0  0.97835  0.99905  0.71838  1.0000
  H   H200      1.0  0.02178  0.99990  0.79245  1.0000
  C   C1        1.0  0.47760  0.56113  0.19383  1.0000
  C   C2        1.0  0.52187  0.56141  0.28901  1.0000
  C   C3        1.0  0.52247  0.44048  0.30002  1.0000
  C   C4        1.0  0.47826  0.44012  0.20503  1.0000
  C   C5        1.0  0.97859  0.06093  0.19314  1.0000
  C   C6        1.0  0.02078  0.06073  0.29096  1.0000
  C   C7        1.0  0.02146  0.94107  0.30756  1.0000
  C   C8        1.0  0.97914  0.94119  0.21179  1.0000
  C   C9        1.0  0.48601  0.58940  0.21140  1.0000
  C   C10       1.0  0.51292  0.58957  0.26639  1.0000
  C   C11       1.0  0.51414  0.41219  0.28293  1.0000
  C   C12       1.0  0.48721  0.41197  0.22854  1.0000
  C   C13       1.0  0.98665  0.08988  0.20856  1.0000
  C   C14       1.0  0.01303  0.08974  0.26612  1.0000
  C   C15       1.0  0.01355  0.91212  0.29129  1.0000
  C   C16       1.0  0.98708  0.91219  0.23492  1.0000
  C   C17       1.0  0.44507  0.52314  0.11785  1.0000
  C   C18       1.0  0.55474  0.52365  0.37328  1.0000
  C   C19       1.0  0.55493  0.47837  0.37755  1.0000
  C   C20       1.0  0.44533  0.47780  0.12092  1.0000
  C   C21       1.0  0.94475  0.02457  0.11327  1.0000
  C   C22       1.0  0.05473  0.02438  0.38297  1.0000
  C   C23       1.0  0.05528  0.97735  0.38835  1.0000
  C   C24       1.0  0.94513  0.97754  0.12036  1.0000
  C   C25       1.0  0.41947  0.51458  0.04169  1.0000
  C   C26       1.0  0.58028  0.51507  0.45236  1.0000
  C   C27       1.0  0.58041  0.48690  0.45481  1.0000
  C   C28       1.0  0.41968  0.48640  0.04328  1.0000
  C   C29       1.0  0.92007  0.01510  0.03790  1.0000
  C   C30       1.0  0.07956  0.01531  0.46128  1.0000
  C   C31       1.0  0.07993  0.98680  0.46409  1.0000
  C   C32       1.0  0.92034  0.98660  0.04166  1.0000
  C   C33       1.0  0.45168  0.55141  0.13962  1.0000
  C   C34       1.0  0.54789  0.55189  0.34542  1.0000
  C   C35       1.0  0.54824  0.45018  0.35584  1.0000
  C   C36       1.0  0.45223  0.44954  0.14824  1.0000
  C   C37       1.0  0.95233  0.05242  0.13592  1.0000
  C   C38       1.0  0.04688  0.05215  0.35208  1.0000
  C   C39       1.0  0.04769  0.94954  0.36495  1.0000
  C   C40       1.0  0.95293  0.94978  0.15205  1.0000
  C   C41       1.0  0.63665  0.65377  0.46111  1.0000
  C   C42       1.0  0.36491  0.65686  0.03834  1.0000
  C   C43       1.0  0.36654  0.34407  0.05236  1.0000
  C   C44       1.0  0.62961  0.34162  0.44847  1.0000
  C   C45       1.0  0.13185  0.15692  0.46966  1.0000
  C   C46       1.0  0.86671  0.15899  0.03958  1.0000
  C   C47       1.0  0.86657  0.84615  0.03769  1.0000
  C   C48       1.0  0.12786  0.84020  0.44327  1.0000
  C   C49       1.0  0.71718  0.74033  0.30258  1.0000
  C   C50       1.0  0.28210  0.74010  0.20668  1.0000
  C   C51       1.0  0.28450  0.25876  0.21487  1.0000
  C   C52       1.0  0.71240  0.25730  0.30154  1.0000
  C   C53       1.0  0.21276  0.24285  0.30376  1.0000
  C   C54       1.0  0.78436  0.24229  0.21123  1.0000
  C   C55       1.0  0.78783  0.75801  0.19542  1.0000
  C   C56       1.0  0.21013  0.75551  0.29469  1.0000
  C   C57       1.0  0.73636  0.78128  0.18214  1.0000
  C   C58       1.0  0.26109  0.77953  0.32374  1.0000
  C   C59       1.0  0.26337  0.21917  0.34118  1.0000
  C   C60       1.0  0.73423  0.21796  0.18488  1.0000
  C   C61       1.0  0.23387  0.28243  0.17693  1.0000
  C   C62       1.0  0.76319  0.28170  0.32698  1.0000
  C   C63       1.0  0.76843  0.71718  0.31679  1.0000
  C   C64       1.0  0.23179  0.71617  0.17817  1.0000
  C   C65       1.0  0.75871  0.76161  0.21466  1.0000
  C   C66       1.0  0.23936  0.75976  0.28582  1.0000
  C   C67       1.0  0.24187  0.23875  0.29430  1.0000
  C   C68       1.0  0.75534  0.23779  0.22614  1.0000
  C   C69       1.0  0.25539  0.26278  0.22255  1.0000
  C   C70       1.0  0.74160  0.26166  0.29169  1.0000
  C   C71       1.0  0.74627  0.73686  0.28316  1.0000
  C   C72       1.0  0.25301  0.73585  0.22008  1.0000
  C   C73       1.0  0.68322  0.77987  0.23538  1.0000
  C   C74       1.0  0.31426  0.77987  0.28341  1.0000
  C   C75       1.0  0.31672  0.21908  0.30467  1.0000
  C   C76       1.0  0.68100  0.21722  0.21388  1.0000
  C   C77       1.0  0.18051  0.28288  0.21761  1.0000
  C   C78       1.0  0.81639  0.28243  0.28249  1.0000
  C   C79       1.0  0.82179  0.71817  0.26084  1.0000
  C   C80       1.0  0.17859  0.71573  0.20390  1.0000
  C   C81       1.0  0.68055  0.80884  0.30781  1.0000
  C   C82       1.0  0.31719  0.80914  0.20705  1.0000
  C   C83       1.0  0.31972  0.18989  0.23526  1.0000
  C   C84       1.0  0.67676  0.18855  0.29697  1.0000
  C   C85       1.0  0.17831  0.31192  0.29025  1.0000
  C   C86       1.0  0.81887  0.31115  0.19912  1.0000
  C   C87       1.0  0.82364  0.68797  0.20555  1.0000
  C   C88       1.0  0.17381  0.68759  0.29190  1.0000
  C   C89       1.0  0.64952  0.81777  0.32810  1.0000
  C   C90       1.0  0.34809  0.81874  0.19489  1.0000
  C   C91       1.0  0.35046  0.17984  0.23245  1.0000
  C   C92       1.0  0.64703  0.17728  0.27389  1.0000
  C   C93       1.0  0.14771  0.32233  0.30375  1.0000
  C   C94       1.0  0.84948  0.32160  0.18887  1.0000
  C   C95       1.0  0.85430  0.67761  0.19443  1.0000
  C   C96       1.0  0.14410  0.67636  0.26844  1.0000
  C   C97       1.0  0.64610  0.84729  0.39151  1.0000
  C   C98       1.0  0.35121  0.84884  0.13212  1.0000
  C   C99       1.0  0.35376  0.15014  0.17163  1.0000
  C   C100      1.0  0.64317  0.14753  0.34127  1.0000
  C   C101      1.0  0.14556  0.35191  0.36753  1.0000
  C   C102      1.0  0.85204  0.35081  0.11180  1.0000
  C   C103      1.0  0.85621  0.64699  0.14845  1.0000
  C   C104      1.0  0.13937  0.64767  0.34933  1.0000
  C   C105      1.0  0.47770  0.55996  0.69589  1.0000
  C   C106      1.0  0.52207  0.56020  0.78844  1.0000
  C   C107      1.0  0.52311  0.43943  0.80576  1.0000
  C   C108      1.0  0.47887  0.43926  0.71078  1.0000
  C   C109      1.0  0.97862  0.05896  0.69964  1.0000
  C   C110      1.0  0.02103  0.05942  0.79448  1.0000
  C   C111      1.0  0.02154  0.93970  0.81270  1.0000
  C   C112      1.0  0.97918  0.93936  0.71684  1.0000
  C   C113      1.0  0.48624  0.58822  0.71112  1.0000
  C   C114      1.0  0.51327  0.58837  0.76406  1.0000
  C   C115      1.0  0.51451  0.41118  0.79025  1.0000
  C   C116      1.0  0.48759  0.41108  0.73553  1.0000
  C   C117      1.0  0.98628  0.08802  0.71485  1.0000
  C   C118      1.0  0.01278  0.08830  0.77045  1.0000
  C   C119      1.0  0.01379  0.91063  0.79768  1.0000
  C   C120      1.0  0.98731  0.91043  0.74117  1.0000
  C   C121      1.0  0.44513  0.52204  0.62149  1.0000
  C   C122      1.0  0.55527  0.52272  0.87339  1.0000
  C   C123      1.0  0.55572  0.47740  0.87951  1.0000
  C   C124      1.0  0.44569  0.47677  0.62596  1.0000
  C   C125      1.0  0.94464  0.02251  0.62007  1.0000
  C   C126      1.0  0.05530  0.02341  0.88446  1.0000
  C   C127      1.0  0.05544  0.97635  0.89061  1.0000
  C   C128      1.0  0.94485  0.97543  0.62689  1.0000
  C   C129      1.0  0.41961  0.51330  0.54530  1.0000
  C   C130      1.0  0.58099  0.51439  0.95137  1.0000
  C   C131      1.0  0.58128  0.48621  0.95500  1.0000
  C   C132      1.0  0.41997  0.48511  0.54787  1.0000
  C   C133      1.0  0.91971  0.01313  0.54670  1.0000
  C   C134      1.0  0.08026  0.01420  0.96079  1.0000
  C   C135      1.0  0.08035  0.98570  0.96435  1.0000
  C   C136      1.0  0.91984  0.98461  0.55084  1.0000
  C   C137      1.0  0.45176  0.55027  0.64248  1.0000
  C   C138      1.0  0.54808  0.55086  0.84546  1.0000
  C   C139      1.0  0.54909  0.44910  0.85934  1.0000
  C   C140      1.0  0.45287  0.44863  0.65366  1.0000
  C   C141      1.0  0.95239  0.05032  0.64258  1.0000
  C   C142      1.0  0.04740  0.05118  0.85364  1.0000
  C   C143      1.0  0.04786  0.94846  0.86804  1.0000
  C   C144      1.0  0.95286  0.94765  0.65697  1.0000
  C   C145      1.0  0.63200  0.65631  0.96843  1.0000
  C   C146      1.0  0.37081  0.65877  0.54538  1.0000
  C   C147      1.0  0.36999  0.34162  0.55472  1.0000
  C   C148      1.0  0.63558  0.34326  0.95546  1.0000
  C   C149      1.0  0.13250  0.15681  0.96310  1.0000
  C   C150      1.0  0.87310  0.16062  0.54550  1.0000
  C   C151      1.0  0.86839  0.84203  0.53608  1.0000
  C   C152      1.0  0.13413  0.84222  0.95080  1.0000
  C   C153      1.0  0.71420  0.74154  0.81389  1.0000
  C   C154      1.0  0.28935  0.74451  0.68449  1.0000
  C   C155      1.0  0.28694  0.25694  0.70830  1.0000
  C   C156      1.0  0.71909  0.26081  0.78446  1.0000
  C   C157      1.0  0.21498  0.24158  0.79755  1.0000
  C   C158      1.0  0.79093  0.24591  0.68750  1.0000
  C   C159      1.0  0.78537  0.75811  0.70561  1.0000
  C   C160      1.0  0.21754  0.76007  0.77434  1.0000
  C   C161      1.0  0.73420  0.78154  0.68509  1.0000
  C   C162      1.0  0.26804  0.78386  0.80360  1.0000
  C   C163      1.0  0.26534  0.21772  0.83775  1.0000
  C   C164      1.0  0.74009  0.22179  0.66223  1.0000
  C   C165      1.0  0.23638  0.28074  0.66759  1.0000
  C   C166      1.0  0.76944  0.28504  0.80844  1.0000
  C   C167      1.0  0.76548  0.71827  0.83615  1.0000
  C   C168      1.0  0.23846  0.72076  0.65493  1.0000
  C   C169      1.0  0.75619  0.76196  0.72336  1.0000
  C   C170      1.0  0.24664  0.76439  0.76032  1.0000
  C   C171      1.0  0.24409  0.23731  0.78844  1.0000
  C   C172      1.0  0.76176  0.24155  0.69986  1.0000
  C   C173      1.0  0.25779  0.26107  0.71480  1.0000
  C   C174      1.0  0.74818  0.26520  0.76929  1.0000
  C   C175      1.0  0.74341  0.73781  0.79772  1.0000
  C   C176      1.0  0.26014  0.74054  0.69287  1.0000
  C   C177      1.0  0.68106  0.78131  0.73237  1.0000
  C   C178      1.0  0.32134  0.78417  0.77226  1.0000
  C   C179      1.0  0.31870  0.21721  0.80456  1.0000
  C   C180      1.0  0.68708  0.22095  0.70531  1.0000
  C   C181      1.0  0.18316  0.28188  0.71100  1.0000
  C   C182      1.0  0.82265  0.28640  0.76634  1.0000
  C   C183      1.0  0.81842  0.71844  0.78844  1.0000
  C   C184      1.0  0.18529  0.72068  0.69303  1.0000
  C   C185      1.0  0.67813  0.80969  0.81253  1.0000
  C   C186      1.0  0.32571  0.81271  0.68765  1.0000
  C   C187      1.0  0.32229  0.18840  0.73072  1.0000
  C   C188      1.0  0.68469  0.19141  0.77817  1.0000
  C   C189      1.0  0.18091  0.31059  0.78754  1.0000
  C   C190      1.0  0.82496  0.31542  0.68507  1.0000
  C   C191      1.0  0.82235  0.69110  0.69867  1.0000
  C   C192      1.0  0.18173  0.69125  0.76621  1.0000
  C   C193      1.0  0.64725  0.81931  0.82661  1.0000
  C   C194      1.0  0.35620  0.82299  0.69628  1.0000
  C   C195      1.0  0.35306  0.17859  0.73343  1.0000
  C   C196      1.0  0.65444  0.18024  0.77599  1.0000
  C   C197      1.0  0.15012  0.32050  0.80005  1.0000
  C   C198      1.0  0.85554  0.32597  0.67600  1.0000
  C   C199      1.0  0.85200  0.67915  0.71870  1.0000
  C   C200      1.0  0.15068  0.68205  0.77394  1.0000
  C   C201      1.0  0.64406  0.84840  0.89667  1.0000
  C   C202      1.0  0.36016  0.85239  0.62381  1.0000
  C   C203      1.0  0.35699  0.14905  0.67132  1.0000
  C   C204      1.0  0.65237  0.14991  0.83566  1.0000
  C   C205      1.0  0.14694  0.34977  0.86724  1.0000
  C   C206      1.0  0.85812  0.35571  0.60681  1.0000
  C   C207      1.0  0.85589  0.65053  0.64354  1.0000
  C   C208      1.0  0.14720  0.65159  0.82907  1.0000
  N   N1        1.0  0.63543  0.63319  0.36306  1.0000
  N   N2        1.0  0.36469  0.63359  0.12020  1.0000
  N   N3        1.0  0.36750  0.36525  0.14590  1.0000
  N   N4        1.0  0.63352  0.36664  0.39108  1.0000
  N   N5        1.0  0.13167  0.13579  0.37529  1.0000
  N   N6        1.0  0.86697  0.13612  0.12535  1.0000
  N   N7        1.0  0.86722  0.86682  0.13533  1.0000
  N   N8        1.0  0.13281  0.86577  0.39948  1.0000
  N   N9        1.0  0.71103  0.76729  0.24999  1.0000
  N   N10       1.0  0.28708  0.76677  0.26007  1.0000
  N   N11       1.0  0.28954  0.23215  0.27725  1.0000
  N   N12       1.0  0.70777  0.23061  0.24469  1.0000
  N   N13       1.0  0.20768  0.26941  0.24082  1.0000
  N   N14       1.0  0.78924  0.26898  0.26384  1.0000
  N   N15       1.0  0.79392  0.73092  0.24748  1.0000
  N   N16       1.0  0.20536  0.72893  0.23719  1.0000
  N   N17       1.0  0.49989  0.54499  0.24292  1.0000
  N   N18       1.0  0.50020  0.45658  0.25058  1.0000
  N   N19       1.0  0.99960  0.04358  0.24463  1.0000
  N   N20       1.0  0.00031  0.95839  0.25748  1.0000
  N   N21       1.0  0.46090  0.50047  0.16149  1.0000
  N   N22       1.0  0.53921  0.50102  0.33254  1.0000
  N   N23       1.0  0.95958  0.00118  0.15806  1.0000
  N   N24       1.0  0.04038  0.00074  0.34423  1.0000
  N   N25       1.0  0.63311  0.63428  0.88097  1.0000
  N   N26       1.0  0.36665  0.63390  0.60458  1.0000
  N   N27       1.0  0.36801  0.36481  0.63108  1.0000
  N   N28       1.0  0.63584  0.36671  0.87537  1.0000
  N   N29       1.0  0.13237  0.13517  0.87263  1.0000
  N   N30       1.0  0.86905  0.13590  0.60729  1.0000
  N   N31       1.0  0.86729  0.86468  0.61797  1.0000
  N   N32       1.0  0.13540  0.86669  0.88256  1.0000
  N   N33       1.0  0.70849  0.76813  0.75274  1.0000
  N   N34       1.0  0.29434  0.77105  0.74256  1.0000
  N   N35       1.0  0.29172  0.23047  0.77438  1.0000
  N   N36       1.0  0.71414  0.23423  0.72923  1.0000
  N   N37       1.0  0.21014  0.26806  0.73261  1.0000
  N   N38       1.0  0.79574  0.27247  0.74543  1.0000
  N   N39       1.0  0.79108  0.73158  0.76690  1.0000
  N   N40       1.0  0.21251  0.73344  0.72000  1.0000
  N   N41       1.0  0.49997  0.54379  0.74459  1.0000
  N   N42       1.0  0.50095  0.45563  0.75558  1.0000
  N   N43       1.0  0.99998  0.04193  0.74978  1.0000
  N   N44       1.0  0.00021  0.95679  0.76231  1.0000
  N   N45       1.0  0.46109  0.49954  0.66603  1.0000
  N   N46       1.0  0.53983  0.49991  0.83420  1.0000
  N   N47       1.0  0.95948  0.99903  0.66354  1.0000
  N   N48       1.0  0.04062  0.99985  0.84758  1.0000
  O   O1        1.0  0.73576  0.80406  0.11103  1.0000
  O   O2        1.0  0.26101  0.80167  0.39612  1.0000
  O   O3        1.0  0.26288  0.19716  0.42092  1.0000
  O   O4        1.0  0.73529  0.19590  0.11179  1.0000
  O   O5        1.0  0.23431  0.30451  0.09797  1.0000
  O   O6        1.0  0.76282  0.30411  0.39664  1.0000
  O   O7        1.0  0.76861  0.69460  0.39007  1.0000
  O   O8        1.0  0.23270  0.69414  0.10468  1.0000
  O   O9        1.0  0.73414  0.80410  0.61097  1.0000
  O   O10       1.0  0.26735  0.80564  0.87957  1.0000
  O   O11       1.0  0.26446  0.19587  0.91908  1.0000
  O   O12       1.0  0.74026  0.19990  0.58724  1.0000
  O   O13       1.0  0.23707  0.30276  0.58771  1.0000
  O   O14       1.0  0.76866  0.30714  0.88120  1.0000
  O   O15       1.0  0.76576  0.69589  0.91210  1.0000
  O   O16       1.0  0.23869  0.69871  0.58145  1.0000
  C  Sn1       1.0  0.61214  0.58734  0.24291  1.0000
  C   C209      1.0  0.61134  0.61205  0.32907  1.0000
  C  Sn2       1.0  0.59046  0.61632  0.45333  1.0000
  C  Sn3       1.0  0.56995  0.59544  0.49238  1.0000
  C   C210      1.0  0.57076  0.57075  0.40626  1.0000
  C  Sn4       1.0  0.59164  0.56646  0.28195  1.0000
  O  Te1       1.0  0.63322  0.58351  0.11916  1.0000
  O  Te2       1.0  0.59009  0.64120  0.53772  1.0000
  O  Te3       1.0  0.54887  0.59929  0.61624  1.0000
  O  Te4       1.0  0.59202  0.54160  0.19761  1.0000
  Mg  Mg1       1.0  0.55719  0.63667  0.69628  1.0000
  Mg  Mg2       1.0  0.62491  0.54610  0.03910  1.0000
  C  Sn5       1.0  0.43319  0.60586  0.05034  1.0000
  C   C211      1.0  0.43171  0.58017  0.13305  1.0000
  C  Sn6       1.0  0.40565  0.56946  0.19258  1.0000
  C  Sn7       1.0  0.38052  0.58475  0.16886  1.0000
  C   C212      1.0  0.38200  0.61043  0.08617  1.0000
  C  Sn8       1.0  0.40806  0.62115  0.02662  1.0000
  O  Te5       1.0  0.44994  0.61224  0.99187  1.0000
  O  Te6       1.0  0.40471  0.54373  0.27494  1.0000
  O  Te7       1.0  0.35422  0.57443  0.22742  1.0000
  O  Te8       1.0  0.39947  0.64293  0.94428  1.0000
  Mg  Mg3       1.0  0.36386  0.53844  0.33179  1.0000
  Mg  Mg4       1.0  0.44030  0.64824  0.88731  1.0000
  C  Sn9       1.0  0.38264  0.41983  0.17280  1.0000
  C   C213      1.0  0.38493  0.39404  0.09854  1.0000
  C  Sn10      1.0  0.41138  0.38379  0.04513  1.0000
  C  Sn11      1.0  0.43606  0.39962  0.06646  1.0000
  C   C214      1.0  0.43377  0.42539  0.14070  1.0000
  C  Sn12      1.0  0.40733  0.43567  0.19413  1.0000
  O  Te9       1.0  0.35598  0.42968  0.22527  1.0000
  O  Te10      1.0  0.40359  0.35403  0.97119  1.0000
  O  Te11      1.0  0.46274  0.38975  0.01391  1.0000
  O  Te12      1.0  0.40557  0.46148  0.26806  1.0000
  Mg  Mg5       1.0  0.44468  0.34949  0.92021  1.0000
  Mg  Mg6       1.0  0.36450  0.46603  0.31916  1.0000
  C  Sn13      1.0  0.61794  0.42076  0.34090  1.0000
  C   C215      1.0  0.61586  0.39549  0.42797  1.0000
  C  Sn14      1.0  0.58952  0.38548  0.48767  1.0000
  C  Sn15      1.0  0.56473  0.40104  0.45968  1.0000
  C   C216      1.0  0.56681  0.42629  0.37263  1.0000
  C  Sn16      1.0  0.59314  0.43632  0.31291  1.0000
  O  Te13      1.0  0.64449  0.43037  0.28234  1.0000
  O  Te14      1.0  0.58798  0.36017  0.57442  1.0000
  O  Te15      1.0  0.53816  0.39141  0.51833  1.0000
  O  Te16      1.0  0.59469  0.46162  0.22618  1.0000
  Mg  Mg7       1.0  0.54697  0.35578  0.62955  1.0000
  Mg  Mg8       1.0  0.63568  0.46602  0.17093  1.0000
  C  Sn17      1.0  0.08153  0.11103  0.51981  1.0000
  C   C217      1.0  0.10846  0.11220  0.44087  1.0000
  C  Sn18      1.0  0.11573  0.09430  0.31340  1.0000
  C  Sn19      1.0  0.09567  0.07483  0.26372  1.0000
  C   C218      1.0  0.06876  0.07367  0.34262  1.0000
  C  Sn20      1.0  0.06147  0.09156  0.47012  1.0000
  O  Te17      1.0  0.07472  0.12913  0.64693  1.0000
  O  Te18      1.0  0.14278  0.09585  0.23638  1.0000
  O  Te19      1.0  0.10251  0.05673  0.13649  1.0000
  O  Te20      1.0  0.03444  0.09002  0.54711  1.0000
  Mg  Mg9       1.0  0.14204  0.06681  0.06942  1.0000
  Mg  Mg10      1.0  0.03516  0.11905  0.71401  1.0000
  C  Sn21      1.0  0.93467  0.10710  0.04900  1.0000
  C   C219      1.0  0.93279  0.08116  0.12875  1.0000
  C  Sn22      1.0  0.90658  0.07076  0.18802  1.0000
  C  Sn23      1.0  0.88172  0.08662  0.16705  1.0000
  C   C220      1.0  0.88361  0.11254  0.08731  1.0000
  C  Sn24      1.0  0.90982  0.12295  0.02803  1.0000
  O  Te21      1.0  0.95156  0.11315  0.99073  1.0000
  O  Te22      1.0  0.90523  0.04478  0.26739  1.0000
  O  Te23      1.0  0.85528  0.07661  0.22540  1.0000
  O  Te24      1.0  0.90163  0.14499  0.94867  1.0000
  Mg  Mg11      1.0  0.86433  0.04009  0.32517  1.0000
  Mg  Mg12      1.0  0.94251  0.14968  0.89077  1.0000
  C  Sn25      1.0  0.90117  0.92505  0.25612  1.0000
  C   C221      1.0  0.92811  0.92572  0.17712  1.0000
  C  Sn26      1.0  0.93509  0.90753  0.05064  1.0000
  C  Sn27      1.0  0.91472  0.88829  0.00201  1.0000
  C   C222      1.0  0.88781  0.88763  0.08097  1.0000
  C  Sn28      1.0  0.88081  0.90581  0.20750  1.0000
  O  Te25      1.0  0.89466  0.94342  0.38226  1.0000
  O  Te26      1.0  0.95262  0.90466  0.97353  1.0000
  O  Te27      1.0  0.91173  0.86598  0.87577  1.0000
  O  Te28      1.0  0.85376  0.90476  0.28456  1.0000
  Mg  Mg13      1.0  0.95140  0.87540  0.80816  1.0000
  Mg  Mg14      1.0  0.85495  0.93402  0.44989  1.0000
  C  Sn29      1.0  0.07666  0.88312  0.46840  1.0000
  C   C223      1.0  0.10399  0.88269  0.39466  1.0000
  C  Sn30      1.0  0.11626  0.90699  0.32724  1.0000
  C  Sn31      1.0  0.10090  0.93226  0.33374  1.0000
  C   C224      1.0  0.07359  0.93269  0.40746  1.0000
  C  Sn32      1.0  0.06130  0.90840  0.47490  1.0000
  O  Te29      1.0  0.06482  0.85858  0.53502  1.0000
  O  Te30      1.0  0.14360  0.90604  0.25411  1.0000
  O  Te31      1.0  0.11277  0.95682  0.26703  1.0000
  O  Te32      1.0  0.03397  0.90934  0.54801  1.0000
  Mg  Mg15      1.0  0.15064  0.94495  0.18058  1.0000
  Mg  Mg16      1.0  0.02692  0.87044  0.62165  1.0000
  C  Sn33      1.0  0.67317  0.71700  0.51673  1.0000
  C   C225      1.0  0.69646  0.71700  0.40407  1.0000
  C  Sn34      1.0  0.69962  0.69613  0.28883  1.0000
  C  Sn35      1.0  0.67905  0.67481  0.28605  1.0000
  C   C226      1.0  0.65578  0.67482  0.39863  1.0000
  C  Sn36      1.0  0.65261  0.69568  0.51394  1.0000
  O  Te33      1.0  0.67044  0.73807  0.63085  1.0000
  O  Te34      1.0  0.72309  0.69657  0.17749  1.0000
  O  Te35      1.0  0.68180  0.65373  0.17180  1.0000
  O  Te36      1.0  0.62915  0.69525  0.62522  1.0000
  Mg  Mg17      1.0  0.71744  0.66333  0.04544  1.0000
  Mg  Mg18      1.0  0.63477  0.72849  0.75726  1.0000
  C  Sn37      1.0  0.31000  0.67275  0.15817  1.0000
  C   C227      1.0  0.33503  0.67532  0.06019  1.0000
  C  Sn38      1.0  0.34603  0.70152  0.01722  1.0000
  C  Sn39      1.0  0.33172  0.72565  0.07342  1.0000
  C   C228      1.0  0.30671  0.72308  0.17136  1.0000
  C  Sn40      1.0  0.29569  0.69688  0.21438  1.0000
  O  Te37      1.0  0.29940  0.64635  0.19963  1.0000
  O  Te38      1.0  0.36154  0.69964  0.91909  1.0000
  O  Te39      1.0  0.34235  0.75207  0.03186  1.0000
  O  Te40      1.0  0.27066  0.69483  0.31246  1.0000
  Mg  Mg19      1.0  0.36760  0.74019  0.89559  1.0000
  Mg  Mg20      1.0  0.26459  0.65429  0.33610  1.0000
  C  Sn41      1.0  0.30058  0.31472  0.19224  1.0000
  C   C229      1.0  0.30084  0.28749  0.13706  1.0000
  C  Sn42      1.0  0.32555  0.27617  0.06499  1.0000
  C  Sn43      1.0  0.35054  0.29240  0.04780  1.0000
  C   C230      1.0  0.35028  0.31960  0.10299  1.0000
  C  Sn44      1.0  0.32557  0.33094  0.17505  1.0000
  O  Te41      1.0  0.27563  0.32560  0.26392  1.0000
  O  Te42      1.0  0.32529  0.24891  0.01071  1.0000
  O  Te43      1.0  0.36596  0.27756  0.97605  1.0000
  O  Te44      1.0  0.32583  0.35818  0.22934  1.0000
  Mg  Mg21      1.0  0.35501  0.23942  0.92128  1.0000
  Mg  Mg22      1.0  0.28659  0.36377  0.31886  1.0000
  C  Sn45      1.0  0.67975  0.32240  0.28645  1.0000
  C   C231      1.0  0.65314  0.32009  0.36844  1.0000
  C  Sn46      1.0  0.64584  0.29617  0.46076  1.0000
  C  Sn47      1.0  0.66556  0.27410  0.47144  1.0000
  C   C232      1.0  0.69215  0.27642  0.38951  1.0000
  C  Sn48      1.0  0.69946  0.30033  0.29714  1.0000
  O  Te45      1.0  0.68659  0.34650  0.19488  1.0000
  O  Te46      1.0  0.61911  0.29434  0.54160  1.0000
  O  Te47      1.0  0.65869  0.24998  0.56311  1.0000
  O  Te48      1.0  0.72617  0.30217  0.21636  1.0000
  Mg  Mg23      1.0  0.61968  0.25730  0.65118  1.0000
  Mg  Mg24      1.0  0.72564  0.33920  0.10681  1.0000
  C  Sn49      1.0  0.14680  0.21310  0.45642  1.0000
  C   C233      1.0  0.14872  0.18521  0.41428  1.0000
  C  Sn50      1.0  0.17426  0.17433  0.35028  1.0000
  C  Sn51      1.0  0.19838  0.19169  0.32801  1.0000
  C   C234      1.0  0.19644  0.21957  0.37016  1.0000
  C  Sn52      1.0  0.17092  0.23046  0.43415  1.0000
  O  Te49      1.0  0.12105  0.22353  0.52021  1.0000
  O  Te50      1.0  0.17566  0.14638  0.30901  1.0000
  O  Te51      1.0  0.22413  0.18124  0.26415  1.0000
  O  Te52      1.0  0.16951  0.25840  0.47543  1.0000
  Mg  Mg25      1.0  0.21546  0.14182  0.22645  1.0000
  Mg  Mg26      1.0  0.12973  0.26297  0.55807  1.0000
  C  Sn53      1.0  0.81056  0.19171  0.26609  1.0000
  C   C235      1.0  0.80927  0.21883  0.20273  1.0000
  C  Sn54      1.0  0.82539  0.22658  0.06086  1.0000
  C  Sn55      1.0  0.83360  0.20288  0.98057  1.0000
  C   C236      1.0  0.84442  0.17971  0.04390  1.0000
  C  Sn56      1.0  0.82832  0.17194  0.18579  1.0000
  O  Te53      1.0  0.79427  0.18442  0.40806  1.0000
  O  Te54      1.0  0.81422  0.24989  0.99988  1.0000
  O  Te55      1.0  0.84990  0.21020  0.83849  1.0000
  O  Te56      1.0  0.82994  0.14472  0.24675  1.0000
  Mg  Mg27      1.0  0.84046  0.24982  0.80285  1.0000
  Mg  Mg28      1.0  0.80370  0.14477  0.44372  1.0000
  C  Sn57      1.0  0.82110  0.82214  0.22841  1.0000
  C   C237      1.0  0.84543  0.82219  0.12355  1.0000
  C  Sn58      1.0  0.84999  0.80113  0.01062  1.0000
  C  Sn59      1.0  0.82981  0.77957  0.00225  1.0000
  C   C238      1.0  0.80550  0.77953  0.10705  1.0000
  C  Sn60      1.0  0.80092  0.80058  0.22004  1.0000
  O  Te57      1.0  0.81697  0.84340  0.34035  1.0000
  O  Te58      1.0  0.86493  0.79770  0.90710  1.0000
  O  Te59      1.0  0.82442  0.75437  0.89019  1.0000
  O  Te60      1.0  0.77646  0.80009  0.32350  1.0000
  Mg  Mg29      1.0  0.86106  0.76413  0.77516  1.0000
  Mg  Mg30      1.0  0.78030  0.83365  0.45541  1.0000
  C  Sn61      1.0  0.15336  0.77196  0.39005  1.0000
  C   C239      1.0  0.18063  0.77435  0.31660  1.0000
  C  Sn62      1.0  0.19409  0.80013  0.30335  1.0000
  C  Sn63      1.0  0.18000  0.82402  0.36488  1.0000
  C   C240      1.0  0.15275  0.82163  0.43830  1.0000
  C  Sn64      1.0  0.13928  0.79585  0.45158  1.0000
  O  Te61      1.0  0.14031  0.74598  0.40199  1.0000
  O  Te62      1.0  0.22135  0.80200  0.22937  1.0000
  O  Te63      1.0  0.19307  0.85002  0.35287  1.0000
  O  Te64      1.0  0.11203  0.79398  0.52553  1.0000
  Mg  Mg31      1.0  0.23030  0.84197  0.24199  1.0000
  Mg  Mg32      1.0  0.10306  0.75402  0.51305  1.0000
  C  Sn65      1.0  0.60564  0.56899  0.82547  1.0000
  C   C241      1.0  0.57801  0.56837  0.89494  1.0000
  C  Sn66      1.0  0.56535  0.59253  0.95533  1.0000
  C  Sn67      1.0  0.58062  0.61785  0.94600  1.0000
  C   C242      1.0  0.60824  0.61847  0.87654  1.0000
  C  Sn68      1.0  0.62091  0.59431  0.81614  1.0000
  O  Te65      1.0  0.61787  0.54458  0.76587  1.0000
  O  Te66      1.0  0.54724  0.59531  0.02429  1.0000
  O  Te67      1.0  0.57791  0.64619  0.00568  1.0000
  O  Te68      1.0  0.64854  0.59544  0.74719  1.0000
  Mg  Mg33      1.0  0.53973  0.63409  0.08856  1.0000
  Mg  Mg34      1.0  0.65607  0.55668  0.68281  1.0000
  C  Sn69      1.0  0.43437  0.60446  0.54308  1.0000
  C   C243      1.0  0.43241  0.57945  0.63278  1.0000
  C  Sn70      1.0  0.40612  0.56956  0.69430  1.0000
  C  Sn71      1.0  0.38128  0.58499  0.66549  1.0000
  C   C244      1.0  0.38325  0.60999  0.57582  1.0000
  C  Sn72      1.0  0.40953  0.61990  0.51427  1.0000
  O  Te69      1.0  0.46087  0.61395  0.48274  1.0000
  O  Te70      1.0  0.40469  0.54450  0.78367  1.0000
  O  Te71      1.0  0.35477  0.57548  0.72593  1.0000
  O  Te72      1.0  0.41097  0.64494  0.42493  1.0000
  Mg  Mg35      1.0  0.36372  0.54020  0.84050  1.0000
  Mg  Mg36      1.0  0.45193  0.64925  0.36798  1.0000
  C  Sn73      1.0  0.42952  0.40214  0.48889  1.0000
  C   C245      1.0  0.42794  0.42640  0.57925  1.0000
  C  Sn74      1.0  0.40716  0.42934  0.70566  1.0000
  C  Sn75      1.0  0.38755  0.40758  0.74261  1.0000
  C   C246      1.0  0.38914  0.38333  0.65230  1.0000
  C  Sn76      1.0  0.40992  0.38038  0.52585  1.0000
  O  Te73      1.0  0.45047  0.39965  0.36306  1.0000
  O  Te74      1.0  0.40599  0.45379  0.79424  1.0000
  O  Te75      1.0  0.36659  0.41009  0.86856  1.0000
  O  Te76      1.0  0.41109  0.35594  0.43731  1.0000
  Mg  Mg37      1.0  0.37362  0.44736  0.95429  1.0000
  Mg  Mg38      1.0  0.44346  0.36234  0.27731  1.0000
  C  Sn77      1.0  0.58344  0.40567  0.02582  1.0000
  C   C247      1.0  0.57487  0.42693  0.93766  1.0000
  C  Sn78      1.0  0.59539  0.43147  0.81055  1.0000
  C  Sn79      1.0  0.61535  0.41037  0.77063  1.0000
  C   C248      1.0  0.61437  0.38519  0.85874  1.0000
  C  Sn80      1.0  0.59386  0.38064  0.98591  1.0000
  O  Te77      1.0  0.56274  0.40159  0.15241  1.0000
  O  Te78      1.0  0.59594  0.45683  0.72420  1.0000
  O  Te79      1.0  0.63606  0.41447  0.64393  1.0000
  O  Te80      1.0  0.60284  0.35922  0.07221  1.0000
  Mg  Mg39      1.0  0.62817  0.45250  0.56202  1.0000
  Mg  Mg40      1.0  0.57061  0.36352  0.23434  1.0000
  C  Sn81      1.0  0.10509  0.06926  0.83202  1.0000
  C   C249      1.0  0.07753  0.06890  0.90258  1.0000
  C  Sn82      1.0  0.06490  0.09334  0.95916  1.0000
  C  Sn83      1.0  0.08014  0.11866  0.94484  1.0000
  C   C250      1.0  0.10768  0.11901  0.87430  1.0000
  C  Sn84      1.0  0.12033  0.09459  0.81770  1.0000
  O  Te81      1.0  0.11730  0.04459  0.77628  1.0000
  O  Te82      1.0  0.04687  0.09639  0.02930  1.0000
  O  Te83      1.0  0.07744  0.14728  0.00066  1.0000
  O  Te84      1.0  0.14788  0.09546  0.74758  1.0000
  Mg  Mg41      1.0  0.03937  0.13548  0.08702  1.0000
  Mg  Mg42      1.0  0.15540  0.05639  0.68974  1.0000
  C  Sn85      1.0  0.89002  0.08890  0.73537  1.0000
  C   C251      1.0  0.89205  0.11340  0.64065  1.0000
  C  Sn86      1.0  0.91273  0.11621  0.51285  1.0000
  C  Sn87      1.0  0.93178  0.09407  0.47893  1.0000
  C   C252      1.0  0.92975  0.06960  0.57360  1.0000
  C  Sn88      1.0  0.90907  0.06677  0.70145  1.0000
  O  Te85      1.0  0.86917  0.08655  0.86252  1.0000
  O  Te86      1.0  0.91435  0.14090  0.41989  1.0000
  O  Te87      1.0  0.95264  0.09645  0.35166  1.0000
  O  Te88      1.0  0.90744  0.04210  0.79436  1.0000
  Mg  Mg43      1.0  0.94636  0.13416  0.25962  1.0000
  Mg  Mg44      1.0  0.87543  0.04881  0.95459  1.0000
  C  Sn89      1.0  0.90123  0.92148  0.75548  1.0000
  C   C253      1.0  0.92834  0.92278  0.67901  1.0000
  C  Sn90      1.0  0.93569  0.90573  0.54758  1.0000
  C  Sn91      1.0  0.91551  0.88699  0.49133  1.0000
  C   C254      1.0  0.88842  0.88570  0.56776  1.0000
  C  Sn92      1.0  0.88105  0.90274  0.69923  1.0000
  O  Te89      1.0  0.89435  0.93872  0.88666  1.0000
  O  Te90      1.0  0.96293  0.90740  0.47312  1.0000
  O  Te91      1.0  0.92242  0.86974  0.36004  1.0000
  O  Te92      1.0  0.85383  0.90108  0.77364  1.0000
  Mg  Mg45      1.0  0.96221  0.87965  0.29872  1.0000
  Mg  Mg46      1.0  0.85452  0.92883  0.94799  1.0000
  C  Sn93      1.0  0.11812  0.92049  0.84249  1.0000
  C   C255      1.0  0.11706  0.89496  0.92710  1.0000
  C  Sn94      1.0  0.09121  0.88414  0.98942  1.0000
  C  Sn95      1.0  0.06588  0.89914  0.96661  1.0000
  C   C256      1.0  0.06694  0.92466  0.88202  1.0000
  C  Sn96      1.0  0.09279  0.93550  0.81968  1.0000
  O  Te93      1.0  0.14420  0.93091  0.78124  1.0000
  O  Te94      1.0  0.10023  0.86251  0.07363  1.0000
  O  Te95      1.0  0.04933  0.89263  0.02795  1.0000
  O  Te96      1.0  0.09332  0.96104  0.73549  1.0000
  Mg  Mg47      1.0  0.05953  0.85696  0.13405  1.0000
  Mg  Mg48      1.0  0.13400  0.96660  0.67495  1.0000
  C  Sn97      1.0  0.69242  0.68908  0.78030  1.0000
  C   C257      1.0  0.69117  0.71669  0.82866  1.0000
  C  Sn98      1.0  0.67167  0.72482  0.95285  1.0000
  C  Sn99      1.0  0.66259  0.70887  0.03042  1.0000
  C   C258      1.0  0.65431  0.67735  0.98209  1.0000
  C  Sn100     1.0  0.67379  0.66920  0.85787  1.0000
  O  Te97      1.0  0.71208  0.68141  0.65588  1.0000
  O  Te98      1.0  0.67081  0.75255  0.99905  1.0000
  O  Te99      1.0  0.64292  0.71656  0.15493  1.0000
  O  Te100     1.0  0.67466  0.64149  0.81170  1.0000
  Mg  Mg49      1.0  0.64988  0.75678  0.17481  1.0000
  Mg  Mg50      1.0  0.70513  0.64116  0.63602  1.0000
  C  Sn101     1.0  0.31043  0.69137  0.72716  1.0000
  C   C259      1.0  0.31269  0.71941  0.68117  1.0000
  C  Sn102     1.0  0.33312  0.72822  0.56153  1.0000
  C  Sn103     1.0  0.35167  0.70858  0.48621  1.0000
  C   C260      1.0  0.34941  0.68055  0.53218  1.0000
  C  Sn104     1.0  0.32898  0.67173  0.65183  1.0000
  O  Te101     1.0  0.28984  0.68303  0.84703  1.0000
  O  Te102     1.0  0.33497  0.75636  0.51763  1.0000
  O  Te103     1.0  0.37227  0.71694  0.36626  1.0000
  O  Te104     1.0  0.32712  0.64360  0.69571  1.0000
  Mg  Mg51      1.0  0.36647  0.75754  0.34805  1.0000
  Mg  Mg52      1.0  0.29562  0.64239  0.86521  1.0000
  C  Sn105     1.0  0.32046  0.32131  0.72410  1.0000
  C   C261      1.0  0.34672  0.31937  0.63830  1.0000
  C  Sn106     1.0  0.35321  0.29637  0.54241  1.0000
  C  Sn107     1.0  0.33303  0.27487  0.53197  1.0000
  C   C262      1.0  0.30680  0.27681  0.61771  1.0000
  C  Sn108     1.0  0.30028  0.29980  0.71366  1.0000
  O  Te105     1.0  0.31442  0.34449  0.81921  1.0000
  O  Te106     1.0  0.37960  0.29490  0.45780  1.0000
  O  Te107     1.0  0.33910  0.25167  0.43676  1.0000
  O  Te108     1.0  0.27391  0.30128  0.79822  1.0000
  Mg  Mg53      1.0  0.37792  0.25916  0.34426  1.0000
  Mg  Mg54      1.0  0.27557  0.33701  0.91171  1.0000
  C  Sn109     1.0  0.70236  0.31646  0.81485  1.0000
  C   C263      1.0  0.70243  0.28859  0.86575  1.0000
  C  Sn110     1.0  0.67781  0.27620  0.93508  1.0000
  C  Sn111     1.0  0.65259  0.29199  0.95385  1.0000
  C   C264      1.0  0.65253  0.31985  0.90294  1.0000
  C  Sn112     1.0  0.67714  0.33226  0.83361  1.0000
  O  Te109     1.0  0.72722  0.32842  0.74584  1.0000
  O  Te110     1.0  0.67840  0.24830  0.98510  1.0000
  O  Te111     1.0  0.63726  0.28394  0.02293  1.0000
  O  Te112     1.0  0.67656  0.36014  0.78359  1.0000
  Mg  Mg55      1.0  0.64869  0.24526  0.07213  1.0000
  Mg  Mg56      1.0  0.71579  0.36713  0.69647  1.0000
  C  Sn113     1.0  0.19130  0.18999  0.75696  1.0000
  C   C265      1.0  0.19096  0.21736  0.80986  1.0000
  C  Sn114     1.0  0.17273  0.22517  0.94089  1.0000
  C  Sn115     1.0  0.16400  0.20915  0.02081  1.0000
  C   C266      1.0  0.15481  0.17788  0.96794  1.0000
  C  Sn116     1.0  0.17303  0.17004  0.83688  1.0000
  O  Te113     1.0  0.20970  0.18264  0.62572  1.0000
  O  Te114     1.0  0.17276  0.25266  0.99153  1.0000
  O  Te115     1.0  0.14559  0.21653  0.15215  1.0000
  O  Te116     1.0  0.17300  0.14258  0.78626  1.0000
  Mg  Mg57      1.0  0.15343  0.25650  0.17611  1.0000
  Mg  Mg58      1.0  0.20188  0.14263  0.60176  1.0000
  C  Sn117     1.0  0.81266  0.19304  0.72850  1.0000
  C   C267      1.0  0.81456  0.22107  0.68165  1.0000
  C  Sn118     1.0  0.83475  0.22999  0.56095  1.0000
  C  Sn119     1.0  0.85343  0.21048  0.48543  1.0000
  C   C268      1.0  0.85153  0.18247  0.53226  1.0000
  C  Sn120     1.0  0.83134  0.17354  0.65297  1.0000
  O  Te117     1.0  0.79230  0.18459  0.84942  1.0000
  O  Te118     1.0  0.83625  0.25812  0.51621  1.0000
  O  Te119     1.0  0.87380  0.21896  0.36442  1.0000
  O  Te120     1.0  0.82983  0.14543  0.69769  1.0000
  Mg  Mg59      1.0  0.86754  0.25949  0.34533  1.0000
  Mg  Mg60      1.0  0.79854  0.14403  0.86848  1.0000
  C  Sn121     1.0  0.81909  0.82243  0.70969  1.0000
  C   C269      1.0  0.84488  0.82019  0.61933  1.0000
  C  Sn122     1.0  0.85060  0.79707  0.52307  1.0000
  C  Sn123     1.0  0.83011  0.77575  0.51691  1.0000
  C   C270      1.0  0.80434  0.77800  0.60722  1.0000
  C  Sn124     1.0  0.79860  0.80111  0.70354  1.0000
  O  Te121     1.0  0.81382  0.84572  0.80509  1.0000
  O  Te122     1.0  0.87655  0.79529  0.43385  1.0000
  O  Te123     1.0  0.83540  0.75244  0.42142  1.0000
  O  Te124     1.0  0.77267  0.80290  0.79270  1.0000
  Mg  Mg61      1.0  0.87384  0.75950  0.32181  1.0000
  Mg  Mg62      1.0  0.77535  0.83868  0.90470  1.0000
  C  Sn125     1.0  0.20114  0.81564  0.81057  1.0000
  C   C271      1.0  0.20090  0.78756  0.85702  1.0000
  C  Sn126     1.0  0.17608  0.77511  0.92323  1.0000
  C  Sn127     1.0  0.15098  0.79106  0.94334  1.0000
  C   C272      1.0  0.15123  0.81912  0.89688  1.0000
  C  Sn128     1.0  0.17604  0.83159  0.83068  1.0000
  O  Te125     1.0  0.22619  0.82766  0.74463  1.0000
  O  Te126     1.0  0.17636  0.74700  0.96882  1.0000
  O  Te127     1.0  0.13546  0.78294  0.00934  1.0000
  O  Te128     1.0  0.17577  0.85968  0.78508  1.0000
  Mg  Mg63      1.0  0.14648  0.74395  0.05291  1.0000
  Mg  Mg64      1.0  0.21517  0.86667  0.70090  1.0000
