data_image0
_chemical_formula_structural       Ni4H256C304N48O16SnCSn2CSnTe4Mg2SnCSn2CSnTe4Mg2SnCSn2CSnTe4Mg2SnCSn2CSnTe4Mg2SnCSn2CSnTe4Mg2SnCSn2CSnTe4Mg2SnCSn2CSnTe4Mg2SnCSn2CSnTe4Mg2SnCSn2CSnTe4Mg2SnCSn2CSnTe4Mg2SnCSn2CSnTe4Mg2SnCSn2CSnTe4Mg2SnCSn2CSnTe4Mg2SnCSn2CSnTe4Mg2SnCSn2CSnTe4Mg2SnCSn2CSnTe4Mg2
_chemical_formula_sum              "Ni4 H256 C336 N48 O16 Sn64 Te64 Mg32"
_cell_length_a       50.2385
_cell_length_b       46.4356
_cell_length_c       8.14434
_cell_angle_alpha    89.4663
_cell_angle_beta     74.6273
_cell_angle_gamma    89.876

_symmetry_space_group_name_H-M    'P1'
_space_group_IT_number       1

loop_
  _space_group_symop_operation_xyz
  'x, y, z'

loop_
  _atom_site_type_symbol
  _atom_site_label
  _atom_site_symmetry_multiplicity
  _atom_site_fract_x
  _atom_site_fract_y
  _atom_site_fract_z
  _atom_site_occupancy
  Ni  Ni1       1.0  0.50041  0.50167  0.23796  1.0000
  Ni  Ni2       1.0  0.99938  0.00210  0.26153  1.0000
  Ni  Ni3       1.0  0.50064  0.49973  0.74542  1.0000
  Ni  Ni4       1.0  0.00060  0.00046  0.76341  1.0000
  H   H1        1.0  0.47601  0.61065  0.20567  1.0000
  H   H2        1.0  0.52654  0.61017  0.26022  1.0000
  H   H3        1.0  0.97441  0.11080  0.22539  1.0000
  H   H4        1.0  0.02473  0.11080  0.28326  1.0000
  H   H5        1.0  0.52460  0.39279  0.27064  1.0000
  H   H6        1.0  0.47356  0.39331  0.22501  1.0000
  H   H7        1.0  0.02539  0.89339  0.28406  1.0000
  H   H8        1.0  0.97436  0.89333  0.23843  1.0000
  H   H9        1.0  0.41140  0.52965  0.57742  1.0000
  H   H10       1.0  0.59123  0.52775  0.89977  1.0000
  H   H11       1.0  0.91101  0.02954  0.59811  1.0000
  H   H12       1.0  0.09077  0.02938  0.92047  1.0000
  H   H13       1.0  0.59056  0.46967  0.90469  1.0000
  H   H14       1.0  0.41094  0.47152  0.58099  1.0000
  H   H15       1.0  0.09089  0.97124  0.92012  1.0000
  H   H16       1.0  0.91114  0.97141  0.59887  1.0000
  H   H17       1.0  0.54249  0.60078  0.98135  1.0000
  H   H18       1.0  0.04108  0.10139  0.00731  1.0000
  H   H19       1.0  0.96071  0.10141  0.51151  1.0000
  H   H20       1.0  0.45795  0.39787  0.50601  1.0000
  H   H21       1.0  0.57808  0.63677  0.98177  1.0000
  H   H22       1.0  0.07619  0.13767  0.01266  1.0000
  H   H23       1.0  0.92576  0.13754  0.49660  1.0000
  H   H24       1.0  0.42133  0.36239  0.51464  1.0000
  H   H25       1.0  0.86386  0.08895  0.39701  1.0000
  H   H26       1.0  0.36403  0.41303  0.38004  1.0000
  H   H27       1.0  0.63411  0.40967  0.12347  1.0000
  H   H28       1.0  0.13521  0.91385  0.12976  1.0000
  H   H29       1.0  0.90127  0.05375  0.39420  1.0000
  H   H30       1.0  0.40022  0.44945  0.38097  1.0000
  H   H31       1.0  0.59901  0.44707  0.11272  1.0000
  H   H32       1.0  0.09877  0.95021  0.13047  1.0000
  H   H33       1.0  0.61478  0.65674  0.50914  1.0000
  H   H34       1.0  0.38704  0.65959  0.96668  1.0000
  H   H35       1.0  0.11464  0.15677  0.53398  1.0000
  H   H36       1.0  0.88237  0.15600  0.98244  1.0000
  H   H37       1.0  0.38842  0.34381  0.98319  1.0000
  H   H38       1.0  0.60706  0.34093  0.52982  1.0000
  H   H39       1.0  0.88872  0.84360  0.99836  1.0000
  H   H40       1.0  0.11167  0.84323  0.52590  1.0000
  H   H41       1.0  0.63039  0.70311  0.56826  1.0000
  H   H42       1.0  0.62075  0.29172  0.57420  1.0000
  H   H43       1.0  0.87460  0.79591  0.94716  1.0000
  H   H44       1.0  0.66611  0.74109  0.52211  1.0000
  H   H45       1.0  0.65540  0.25253  0.51758  1.0000
  H   H46       1.0  0.83951  0.75715  0.99476  1.0000
  H   H47       1.0  0.72106  0.68834  0.14647  1.0000
  H   H48       1.0  0.71429  0.30979  0.19131  1.0000
  H   H49       1.0  0.78192  0.81154  0.34548  1.0000
  H   H50       1.0  0.68412  0.65100  0.18595  1.0000
  H   H51       1.0  0.67868  0.34854  0.24169  1.0000
  H   H52       1.0  0.81814  0.84969  0.30483  1.0000
  H   H53       1.0  0.67173  0.76435  0.26706  1.0000
  H   H54       1.0  0.33045  0.76925  0.20331  1.0000
  H   H55       1.0  0.17128  0.26576  0.30213  1.0000
  H   H56       1.0  0.82449  0.26314  0.20897  1.0000
  H   H57       1.0  0.33318  0.23519  0.25993  1.0000
  H   H58       1.0  0.66242  0.23209  0.25910  1.0000
  H   H59       1.0  0.83253  0.73575  0.25849  1.0000
  H   H60       1.0  0.16850  0.73455  0.26219  1.0000
  H   H61       1.0  0.69092  0.77883  0.06975  1.0000
  H   H62       1.0  0.31215  0.78237  0.40492  1.0000
  H   H63       1.0  0.18927  0.27821  0.09703  1.0000
  H   H64       1.0  0.80642  0.27600  0.41134  1.0000
  H   H65       1.0  0.31343  0.21493  0.43569  1.0000
  H   H66       1.0  0.68191  0.21014  0.09338  1.0000
  H   H67       1.0  0.81250  0.71716  0.44043  1.0000
  H   H68       1.0  0.18765  0.71708  0.07543  1.0000
  H   H69       1.0  0.69489  0.82520  0.18739  1.0000
  H   H70       1.0  0.30476  0.82874  0.29299  1.0000
  H   H71       1.0  0.19557  0.32542  0.19441  1.0000
  H   H72       1.0  0.80262  0.32325  0.31145  1.0000
  H   H73       1.0  0.31124  0.17375  0.25597  1.0000
  H   H74       1.0  0.68483  0.17160  0.29611  1.0000
  H   H75       1.0  0.81004  0.67421  0.27352  1.0000
  H   H76       1.0  0.19483  0.67456  0.23685  1.0000
  H   H77       1.0  0.68649  0.81234  0.39688  1.0000
  H   H78       1.0  0.31249  0.81689  0.08297  1.0000
  H   H79       1.0  0.18947  0.31467  0.40684  1.0000
  H   H80       1.0  0.80352  0.31246  0.10577  1.0000
  H   H81       1.0  0.32660  0.19312  0.06888  1.0000
  H   H82       1.0  0.66818  0.19284  0.47083  1.0000
  H   H83       1.0  0.82572  0.69194  0.08102  1.0000
  H   H84       1.0  0.18003  0.69115  0.43246  1.0000
  H   H85       1.0  0.63795  0.80244  0.38982  1.0000
  H   H86       1.0  0.36205  0.80932  0.07922  1.0000
  H   H87       1.0  0.13955  0.30560  0.42614  1.0000
  H   H88       1.0  0.85389  0.30176  0.04221  1.0000
  H   H89       1.0  0.37015  0.19878  0.16041  1.0000
  H   H90       1.0  0.62556  0.19515  0.36536  1.0000
  H   H91       1.0  0.86910  0.69888  0.17381  1.0000
  H   H92       1.0  0.13449  0.69496  0.36108  1.0000
  H   H93       1.0  0.64551  0.81296  0.17513  1.0000
  H   H94       1.0  0.35509  0.81921  0.29358  1.0000
  H   H95       1.0  0.14496  0.31387  0.20952  1.0000
  H   H96       1.0  0.85406  0.30903  0.25243  1.0000
  H   H97       1.0  0.35527  0.18010  0.35075  1.0000
  H   H98       1.0  0.64184  0.17433  0.18841  1.0000
  H   H99       1.0  0.85386  0.68169  0.36867  1.0000
  H   H100      1.0  0.14886  0.67912  0.16250  1.0000
  H   H101      1.0  0.65256  0.86428  0.79410  1.0000
  H   H102      1.0  0.38401  0.85964  0.61171  1.0000
  H   H103      1.0  0.13421  0.34724  0.03902  1.0000
  H   H104      1.0  0.86679  0.34351  0.41820  1.0000
  H   H105      1.0  0.34544  0.14600  0.54988  1.0000
  H   H106      1.0  0.62527  0.14563  0.90955  1.0000
  H   H107      1.0  0.85022  0.64468  0.55341  1.0000
  H   H108      1.0  0.15590  0.64601  0.96946  1.0000
  H   H109      1.0  0.65661  0.86337  0.25071  1.0000
  H   H110      1.0  0.37518  0.86121  0.10124  1.0000
  H   H111      1.0  0.15862  0.36476  0.25957  1.0000
  H   H112      1.0  0.87168  0.35204  0.06325  1.0000
  H   H113      1.0  0.35053  0.13552  0.18528  1.0000
  H   H114      1.0  0.64597  0.13267  0.38291  1.0000
  H   H115      1.0  0.88420  0.64716  0.16388  1.0000
  H   H116      1.0  0.12293  0.64210  0.37245  1.0000
  H   H117      1.0  0.64963  0.85313  0.46744  1.0000
  H   H118      1.0  0.34105  0.86906  0.22196  1.0000
  H   H119      1.0  0.15355  0.35679  0.47830  1.0000
  H   H120      1.0  0.84061  0.36079  0.21772  1.0000
  H   H121      1.0  0.36474  0.15424  0.99186  1.0000
  H   H122      1.0  0.62980  0.15358  0.56230  1.0000
  H   H123      1.0  0.84932  0.63563  0.21507  1.0000
  H   H124      1.0  0.15857  0.63343  0.30897  1.0000
  H   H125      1.0  0.47656  0.60863  0.70974  1.0000
  H   H126      1.0  0.52723  0.60808  0.76060  1.0000
  H   H127      1.0  0.97485  0.10908  0.73824  1.0000
  H   H128      1.0  0.02568  0.10911  0.78718  1.0000
  H   H129      1.0  0.52469  0.39063  0.78050  1.0000
  H   H130      1.0  0.47422  0.39123  0.72581  1.0000
  H   H131      1.0  0.02629  0.89176  0.79020  1.0000
  H   H132      1.0  0.97546  0.89162  0.74029  1.0000
  H   H133      1.0  0.41021  0.53171  0.08131  1.0000
  H   H134      1.0  0.58997  0.52976  0.40371  1.0000
  H   H135      1.0  0.90953  0.03106  0.09891  1.0000
  H   H136      1.0  0.08842  0.03097  0.43132  1.0000
  H   H137      1.0  0.58940  0.47159  0.40658  1.0000
  H   H138      1.0  0.40934  0.47357  0.08822  1.0000
  H   H139      1.0  0.08881  0.97284  0.42832  1.0000
  H   H140      1.0  0.90936  0.97293  0.10353  1.0000
  H   H141      1.0  0.95704  0.10433  0.01051  1.0000
  H   H142      1.0  0.45833  0.40088  0.00382  1.0000
  H   H143      1.0  0.53910  0.40065  0.49622  1.0000
  H   H144      1.0  0.04093  0.90007  0.50537  1.0000
  H   H145      1.0  0.92028  0.13955  0.01413  1.0000
  H   H146      1.0  0.42295  0.36469  0.00325  1.0000
  H   H147      1.0  0.57337  0.36350  0.50688  1.0000
  H   H148      1.0  0.07661  0.86390  0.50470  1.0000
  H   H149      1.0  0.63692  0.58771  0.60855  1.0000
  H   H150      1.0  0.13571  0.09032  0.63369  1.0000
  H   H151      1.0  0.86523  0.09011  0.87405  1.0000
  H   H152      1.0  0.36441  0.41345  0.88649  1.0000
  H   H153      1.0  0.60056  0.55152  0.60796  1.0000
  H   H154      1.0  0.09979  0.05387  0.62781  1.0000
  H   H155      1.0  0.90096  0.05368  0.88921  1.0000
  H   H156      1.0  0.40174  0.44884  0.87982  1.0000
  H   H157      1.0  0.61348  0.65568  0.01153  1.0000
  H   H158      1.0  0.39115  0.65946  0.46245  1.0000
  H   H159      1.0  0.11071  0.15800  0.03943  1.0000
  H   H160      1.0  0.89168  0.15901  0.46889  1.0000
  H   H161      1.0  0.38396  0.34557  0.48472  1.0000
  H   H162      1.0  0.61635  0.34391  0.02119  1.0000
  H   H163      1.0  0.88627  0.84441  0.49993  1.0000
  H   H164      1.0  0.11712  0.84484  0.02331  1.0000
  H   H165      1.0  0.62769  0.70314  0.06638  1.0000
  H   H166      1.0  0.37693  0.70773  0.41106  1.0000
  H   H167      1.0  0.12482  0.20604  0.09073  1.0000
  H   H168      1.0  0.87705  0.20720  0.41889  1.0000
  H   H169      1.0  0.13321  0.79767  0.07710  1.0000
  H   H170      1.0  0.66239  0.74225  0.01749  1.0000
  H   H171      1.0  0.34214  0.74676  0.46264  1.0000
  H   H172      1.0  0.15968  0.24505  0.03877  1.0000
  H   H173      1.0  0.84184  0.24586  0.47191  1.0000
  H   H174      1.0  0.16937  0.76007  0.02381  1.0000
  H   H175      1.0  0.71977  0.68880  0.65937  1.0000
  H   H176      1.0  0.28502  0.69178  0.81832  1.0000
  H   H177      1.0  0.21765  0.18995  0.69575  1.0000
  H   H178      1.0  0.78355  0.18822  0.79993  1.0000
  H   H179      1.0  0.22153  0.81347  0.63312  1.0000
  H   H180      1.0  0.68381  0.65043  0.70008  1.0000
  H   H181      1.0  0.32096  0.65335  0.77319  1.0000
  H   H182      1.0  0.18164  0.15160  0.73967  1.0000
  H   H183      1.0  0.81983  0.15017  0.75413  1.0000
  H   H184      1.0  0.18405  0.85040  0.67965  1.0000
  H   H185      1.0  0.66930  0.76450  0.75193  1.0000
  H   H186      1.0  0.33533  0.76877  0.72191  1.0000
  H   H187      1.0  0.16635  0.26622  0.77619  1.0000
  H   H188      1.0  0.83470  0.26598  0.73386  1.0000
  H   H189      1.0  0.32822  0.23637  0.73699  1.0000
  H   H190      1.0  0.67266  0.23480  0.78462  1.0000
  H   H191      1.0  0.83004  0.73486  0.73709  1.0000
  H   H192      1.0  0.17395  0.73615  0.77020  1.0000
  H   H193      1.0  0.68899  0.78286  0.56852  1.0000
  H   H194      1.0  0.31619  0.78687  0.90633  1.0000
  H   H195      1.0  0.18581  0.28582  0.59664  1.0000
  H   H196      1.0  0.81522  0.28848  0.89685  1.0000
  H   H197      1.0  0.30985  0.22348  0.94034  1.0000
  H   H198      1.0  0.69038  0.22209  0.58111  1.0000
  H   H199      1.0  0.81103  0.72164  0.93838  1.0000
  H   H200      1.0  0.19226  0.72279  0.56935  1.0000
  H   H201      1.0  0.69160  0.82617  0.72927  1.0000
  H   H202      1.0  0.31113  0.82967  0.74040  1.0000
  H   H203      1.0  0.18871  0.32768  0.77066  1.0000
  H   H204      1.0  0.81268  0.32647  0.69130  1.0000
  H   H205      1.0  0.30479  0.17635  0.84115  1.0000
  H   H206      1.0  0.69514  0.17488  0.68025  1.0000
  H   H207      1.0  0.80592  0.67473  0.83209  1.0000
  H   H208      1.0  0.19903  0.67636  0.68217  1.0000
  H   H209      1.0  0.67753  0.80881  0.92513  1.0000
  H   H210      1.0  0.32602  0.81245  0.54680  1.0000
  H   H211      1.0  0.17373  0.30887  0.96054  1.0000
  H   H212      1.0  0.82878  0.30471  0.51787  1.0000
  H   H213      1.0  0.30974  0.18741  0.63010  1.0000
  H   H214      1.0  0.69299  0.18549  0.88795  1.0000
  H   H215      1.0  0.81367  0.68627  0.62014  1.0000
  H   H216      1.0  0.19164  0.68836  0.89183  1.0000
  H   H217      1.0  0.63280  0.80113  0.85033  1.0000
  H   H218      1.0  0.37090  0.80721  0.62420  1.0000
  H   H219      1.0  0.12983  0.30256  0.87193  1.0000
  H   H220      1.0  0.87189  0.30261  0.61777  1.0000
  H   H221      1.0  0.35970  0.19724  0.60139  1.0000
  H   H222      1.0  0.64272  0.19567  0.94229  1.0000
  H   H223      1.0  0.86276  0.69573  0.61779  1.0000
  H   H224      1.0  0.14211  0.69644  0.89749  1.0000
  H   H225      1.0  0.64634  0.81748  0.65073  1.0000
  H   H226      1.0  0.35649  0.82341  0.82152  1.0000
  H   H227      1.0  0.14439  0.32107  0.68046  1.0000
  H   H228      1.0  0.85625  0.32401  0.79341  1.0000
  H   H229      1.0  0.35569  0.18847  0.81623  1.0000
  H   H230      1.0  0.64380  0.18920  0.72930  1.0000
  H   H231      1.0  0.85578  0.68666  0.83438  1.0000
  H   H232      1.0  0.14880  0.68684  0.68274  1.0000
  H   H233      1.0  0.62256  0.85362  0.36506  1.0000
  H   H234      1.0  0.34735  0.85942  0.00569  1.0000
  H   H235      1.0  0.12502  0.35672  0.38844  1.0000
  H   H236      1.0  0.84003  0.35389  0.00571  1.0000
  H   H237      1.0  0.38542  0.14706  0.13341  1.0000
  H   H238      1.0  0.61105  0.14331  0.41572  1.0000
  H   H239      1.0  0.86411  0.65283  0.01730  1.0000
  H   H240      1.0  0.14423  0.64932  0.50951  1.0000
  H   H241      1.0  0.63890  0.84787  0.99558  1.0000
  H   H242      1.0  0.34865  0.86949  0.67277  1.0000
  H   H243      1.0  0.11443  0.35443  0.89253  1.0000
  H   H244      1.0  0.88635  0.35442  0.55901  1.0000
  H   H245      1.0  0.37515  0.14615  0.62863  1.0000
  H   H246      1.0  0.65704  0.13729  0.76056  1.0000
  H   H247      1.0  0.87751  0.64462  0.65400  1.0000
  H   H248      1.0  0.12837  0.64473  0.87097  1.0000
  H   H249      1.0  0.61760  0.85296  0.85544  1.0000
  H   H250      1.0  0.36280  0.85327  0.47288  1.0000
  H   H251      1.0  0.14929  0.36589  0.84663  1.0000
  H   H252      1.0  0.85132  0.36493  0.59646  1.0000
  H   H253      1.0  0.34230  0.13757  0.76617  1.0000
  H   H254      1.0  0.65612  0.14329  0.97591  1.0000
  H   H255      1.0  0.84340  0.63585  0.77217  1.0000
  H   H256      1.0  0.16259  0.63667  0.75260  1.0000
  C   C1        1.0  0.48036  0.56273  0.21013  1.0000
  C   C2        1.0  0.52154  0.56232  0.25903  1.0000
  C   C3        1.0  0.97895  0.06293  0.23244  1.0000
  C   C4        1.0  0.01999  0.06293  0.28371  1.0000
  C   C5        1.0  0.52036  0.44074  0.26507  1.0000
  C   C6        1.0  0.47879  0.44115  0.22249  1.0000
  C   C7        1.0  0.02043  0.94128  0.28308  1.0000
  C   C8        1.0  0.97887  0.94124  0.24018  1.0000
  C   C9        1.0  0.48841  0.59221  0.21953  1.0000
  C   C10       1.0  0.51394  0.59196  0.24719  1.0000
  C   C11       1.0  0.98685  0.09248  0.24070  1.0000
  C   C12       1.0  0.01227  0.09248  0.27008  1.0000
  C   C13       1.0  0.51221  0.41126  0.25743  1.0000
  C   C14       1.0  0.48637  0.41152  0.23467  1.0000
  C   C15       1.0  0.01273  0.91172  0.27242  1.0000
  C   C16       1.0  0.98688  0.91169  0.24974  1.0000
  C   C17       1.0  0.44891  0.52591  0.16397  1.0000
  C   C18       1.0  0.55191  0.52484  0.31364  1.0000
  C   C19       1.0  0.94802  0.02571  0.18442  1.0000
  C   C20       1.0  0.05054  0.02573  0.33967  1.0000
  C   C21       1.0  0.55146  0.47752  0.31577  1.0000
  C   C22       1.0  0.44819  0.47857  0.16997  1.0000
  C   C23       1.0  0.05083  0.97839  0.33772  1.0000
  C   C24       1.0  0.94789  0.97834  0.18832  1.0000
  C   C25       1.0  0.42462  0.51711  0.11604  1.0000
  C   C26       1.0  0.57556  0.51549  0.36780  1.0000
  C   C27       1.0  0.92400  0.01663  0.13435  1.0000
  C   C28       1.0  0.07427  0.01660  0.39372  1.0000
  C   C29       1.0  0.57528  0.48623  0.36916  1.0000
  C   C30       1.0  0.42418  0.48785  0.11969  1.0000
  C   C31       1.0  0.07446  0.98735  0.39223  1.0000
  C   C32       1.0  0.92390  0.98736  0.13687  1.0000
  C   C33       1.0  0.45523  0.55474  0.18127  1.0000
  C   C34       1.0  0.54637  0.55381  0.29097  1.0000
  C   C35       1.0  0.95395  0.05463  0.20284  1.0000
  C   C36       1.0  0.04479  0.05465  0.31702  1.0000
  C   C37       1.0  0.54533  0.44876  0.29568  1.0000
  C   C38       1.0  0.45376  0.44965  0.19356  1.0000
  C   C39       1.0  0.04530  0.94956  0.31425  1.0000
  C   C40       1.0  0.95379  0.94947  0.21078  1.0000
  C   C41       1.0  0.93210  0.07624  0.20091  1.0000
  C   C42       1.0  0.43217  0.42790  0.19210  1.0000
  C   C43       1.0  0.56628  0.42656  0.30364  1.0000
  C   C44       1.0  0.06692  0.92781  0.31749  1.0000
  C   C45       1.0  0.93672  0.10106  0.09694  1.0000
  C   C46       1.0  0.43779  0.40338  0.08855  1.0000
  C   C47       1.0  0.55979  0.40240  0.41220  1.0000
  C   C48       1.0  0.06145  0.90291  0.42062  1.0000
  C   C49       1.0  0.91578  0.12077  0.09786  1.0000
  C   C50       1.0  0.41762  0.38306  0.08757  1.0000
  C   C51       1.0  0.57933  0.38157  0.41894  1.0000
  C   C52       1.0  0.08180  0.88263  0.42113  1.0000
  C   C53       1.0  0.88893  0.11637  0.20398  1.0000
  C   C54       1.0  0.39048  0.38647  0.19121  1.0000
  C   C55       1.0  0.60664  0.38414  0.31622  1.0000
  C   C56       1.0  0.10891  0.88645  0.31755  1.0000
  C   C57       1.0  0.88430  0.09190  0.31086  1.0000
  C   C58       1.0  0.38477  0.41073  0.29691  1.0000
  C   C59       1.0  0.61322  0.40806  0.20571  1.0000
  C   C60       1.0  0.11448  0.91115  0.21279  1.0000
  C   C61       1.0  0.90534  0.07231  0.30892  1.0000
  C   C62       1.0  0.40513  0.43103  0.29700  1.0000
  C   C63       1.0  0.59350  0.42888  0.20002  1.0000
  C   C64       1.0  0.09399  0.93141  0.21342  1.0000
  C   C65       1.0  0.63231  0.65403  0.39620  1.0000
  C   C66       1.0  0.37015  0.65731  0.08372  1.0000
  C   C67       1.0  0.13164  0.15448  0.41774  1.0000
  C   C68       1.0  0.86587  0.15389  0.10161  1.0000
  C   C69       1.0  0.37038  0.34680  0.09259  1.0000
  C   C70       1.0  0.62552  0.34395  0.42298  1.0000
  C   C71       1.0  0.87081  0.84627  0.10894  1.0000
  C   C72       1.0  0.12953  0.84657  0.41546  1.0000
  C   C73       1.0  0.65471  0.67476  0.37731  1.0000
  C   C74       1.0  0.64722  0.32246  0.40695  1.0000
  C   C75       1.0  0.84884  0.82509  0.12639  1.0000
  C   C76       1.0  0.65003  0.70014  0.47361  1.0000
  C   C77       1.0  0.64110  0.29550  0.48819  1.0000
  C   C78       1.0  0.85449  0.79907  0.03680  1.0000
  C   C79       1.0  0.67011  0.72152  0.44759  1.0000
  C   C80       1.0  0.66054  0.27339  0.45561  1.0000
  C   C81       1.0  0.83481  0.77726  0.06385  1.0000
  C   C82       1.0  0.69591  0.71746  0.32977  1.0000
  C   C83       1.0  0.68701  0.27818  0.34600  1.0000
  C   C84       1.0  0.80853  0.78153  0.17599  1.0000
  C   C85       1.0  0.70117  0.69140  0.23898  1.0000
  C   C86       1.0  0.69375  0.30595  0.27465  1.0000
  C   C87       1.0  0.80228  0.80828  0.25842  1.0000
  C   C88       1.0  0.68064  0.67064  0.26037  1.0000
  C   C89       1.0  0.67403  0.32753  0.30251  1.0000
  C   C90       1.0  0.82236  0.82949  0.23627  1.0000
  C   C91       1.0  0.71758  0.73942  0.29286  1.0000
  C   C92       1.0  0.28456  0.74263  0.19182  1.0000
  C   C93       1.0  0.21769  0.23927  0.30865  1.0000
  C   C94       1.0  0.77822  0.23681  0.20320  1.0000
  C   C95       1.0  0.28759  0.25884  0.21803  1.0000
  C   C96       1.0  0.70816  0.25603  0.29817  1.0000
  C   C97       1.0  0.78718  0.75936  0.21538  1.0000
  C   C98       1.0  0.21414  0.76034  0.28841  1.0000
  C   C99       1.0  0.73992  0.78251  0.18239  1.0000
  C   C100      1.0  0.26151  0.78469  0.30886  1.0000
  C   C101      1.0  0.23992  0.28228  0.19648  1.0000
  C   C102      1.0  0.75599  0.27962  0.31259  1.0000
  C   C103      1.0  0.26562  0.21559  0.33014  1.0000
  C   C104      1.0  0.73015  0.21289  0.18817  1.0000
  C   C105      1.0  0.76496  0.71625  0.32674  1.0000
  C   C106      1.0  0.23726  0.71848  0.16730  1.0000
  C   C107      1.0  0.75940  0.76244  0.22340  1.0000
  C   C108      1.0  0.24210  0.76428  0.27231  1.0000
  C   C109      1.0  0.25962  0.26199  0.23240  1.0000
  C   C110      1.0  0.73624  0.25936  0.27936  1.0000
  C   C111      1.0  0.24563  0.23582  0.29602  1.0000
  C   C112      1.0  0.75024  0.23327  0.21700  1.0000
  C   C113      1.0  0.74533  0.73622  0.28604  1.0000
  C   C114      1.0  0.25669  0.73877  0.20460  1.0000
  C   C115      1.0  0.68854  0.77917  0.20785  1.0000
  C   C116      1.0  0.31332  0.78317  0.26818  1.0000
  C   C117      1.0  0.18822  0.27968  0.23325  1.0000
  C   C118      1.0  0.80757  0.27720  0.27486  1.0000
  C   C119      1.0  0.31704  0.21876  0.29796  1.0000
  C   C120      1.0  0.67848  0.21550  0.22867  1.0000
  C   C121      1.0  0.81622  0.71964  0.30174  1.0000
  C   C122      1.0  0.18545  0.71943  0.21272  1.0000
  C   C123      1.0  0.68149  0.80984  0.27429  1.0000
  C   C124      1.0  0.31848  0.81433  0.20271  1.0000
  C   C125      1.0  0.18269  0.31107  0.29089  1.0000
  C   C126      1.0  0.81310  0.30845  0.21059  1.0000
  C   C127      1.0  0.32645  0.19063  0.20344  1.0000
  C   C128      1.0  0.66913  0.18840  0.33702  1.0000
  C   C129      1.0  0.82541  0.69069  0.21639  1.0000
  C   C130      1.0  0.17885  0.68994  0.29983  1.0000
  C   C131      1.0  0.65101  0.81710  0.29506  1.0000
  C   C132      1.0  0.34870  0.82319  0.17598  1.0000
  C   C133      1.0  0.15212  0.31906  0.32244  1.0000
  C   C134      1.0  0.84407  0.31524  0.15223  1.0000
  C   C135      1.0  0.35522  0.18171  0.21584  1.0000
  C   C136      1.0  0.64091  0.17798  0.32318  1.0000
  C   C137      1.0  0.85405  0.68214  0.23311  1.0000
  C   C138      1.0  0.15019  0.67941  0.29533  1.0000
  C   C139      1.0  0.64448  0.84848  0.34740  1.0000
  C   C140      1.0  0.35345  0.85492  0.12337  1.0000
  C   C141      1.0  0.14694  0.35104  0.36455  1.0000
  C   C142      1.0  0.84952  0.34719  0.10706  1.0000
  C   C143      1.0  0.36457  0.15310  0.12705  1.0000
  C   C144      1.0  0.63136  0.15040  0.42644  1.0000
  C   C145      1.0  0.86350  0.65288  0.15322  1.0000
  C   C146      1.0  0.14354  0.64946  0.37573  1.0000
  C   C147      1.0  0.48063  0.56068  0.71680  1.0000
  C   C148      1.0  0.52203  0.56024  0.76254  1.0000
  C   C149      1.0  0.97971  0.06118  0.74064  1.0000
  C   C150      1.0  0.02115  0.06122  0.78537  1.0000
  C   C151      1.0  0.52055  0.43858  0.77478  1.0000
  C   C152      1.0  0.47941  0.43907  0.72528  1.0000
  C   C153      1.0  0.02136  0.93961  0.78721  1.0000
  C   C154      1.0  0.97998  0.93953  0.74127  1.0000
  C   C155      1.0  0.48881  0.59015  0.72457  1.0000
  C   C156      1.0  0.51450  0.58987  0.74981  1.0000
  C   C157      1.0  0.98744  0.09074  0.75088  1.0000
  C   C158      1.0  0.01318  0.09077  0.77523  1.0000
  C   C159      1.0  0.51238  0.40912  0.76636  1.0000
  C   C160      1.0  0.48687  0.40942  0.73839  1.0000
  C   C161      1.0  0.01363  0.91005  0.77765  1.0000
  C   C162      1.0  0.98793  0.90999  0.75239  1.0000
  C   C163      1.0  0.44949  0.52389  0.66698  1.0000
  C   C164      1.0  0.55256  0.52279  0.81603  1.0000
  C   C165      1.0  0.94909  0.02406  0.68800  1.0000
  C   C166      1.0  0.05215  0.02409  0.83639  1.0000
  C   C167      1.0  0.55196  0.47542  0.82076  1.0000
  C   C168      1.0  0.44912  0.47655  0.66954  1.0000
  C   C169      1.0  0.05219  0.97676  0.83708  1.0000
  C   C170      1.0  0.94918  0.97671  0.68855  1.0000
  C   C171      1.0  0.42562  0.51509  0.61439  1.0000
  C   C172      1.0  0.57651  0.51350  0.86699  1.0000
  C   C173      1.0  0.92534  0.01508  0.63471  1.0000
  C   C174      1.0  0.07623  0.01500  0.88670  1.0000
  C   C175      1.0  0.57615  0.48424  0.86972  1.0000
  C   C176      1.0  0.42540  0.48583  0.61598  1.0000
  C   C177      1.0  0.07627  0.98574  0.88686  1.0000
  C   C178      1.0  0.92540  0.98582  0.63512  1.0000
  C   C179      1.0  0.45560  0.55269  0.68656  1.0000
  C   C180      1.0  0.54697  0.55172  0.79279  1.0000
  C   C181      1.0  0.95486  0.05290  0.70916  1.0000
  C   C182      1.0  0.04622  0.05296  0.81463  1.0000
  C   C183      1.0  0.54569  0.44656  0.80349  1.0000
  C   C184      1.0  0.45464  0.44760  0.69264  1.0000
  C   C185      1.0  0.04637  0.94792  0.81638  1.0000
  C   C186      1.0  0.95499  0.94778  0.71051  1.0000
  C   C187      1.0  0.56860  0.57341  0.79493  1.0000
  C   C188      1.0  0.06758  0.07486  0.81803  1.0000
  C   C189      1.0  0.93365  0.07480  0.70082  1.0000
  C   C190      1.0  0.43275  0.42614  0.69147  1.0000
  C   C191      1.0  0.56306  0.59807  0.89736  1.0000
  C   C192      1.0  0.06170  0.09914  0.92330  1.0000
  C   C193      1.0  0.93990  0.09911  0.59328  1.0000
  C   C194      1.0  0.43755  0.40121  0.59103  1.0000
  C   C195      1.0  0.58337  0.61825  0.89855  1.0000
  C   C196      1.0  0.08172  0.11949  0.92702  1.0000
  C   C197      1.0  0.91999  0.11940  0.58420  1.0000
  C   C198      1.0  0.41670  0.38136  0.59463  1.0000
  C   C199      1.0  0.61056  0.61455  0.79626  1.0000
  C   C200      1.0  0.10895  0.11631  0.82447  1.0000
  C   C201      1.0  0.89256  0.11615  0.68387  1.0000
  C   C202      1.0  0.38980  0.38575  0.69954  1.0000
  C   C203      1.0  0.61616  0.59021  0.69118  1.0000
  C   C204      1.0  0.11490  0.09236  0.71636  1.0000
  C   C205      1.0  0.88625  0.09218  0.79412  1.0000
  C   C206      1.0  0.38493  0.41045  0.80173  1.0000
  C   C207      1.0  0.59569  0.57006  0.69106  1.0000
  C   C208      1.0  0.09469  0.07205  0.71354  1.0000
  C   C209      1.0  0.90632  0.07191  0.80207  1.0000
  C   C210      1.0  0.40589  0.43018  0.79740  1.0000
  C   C211      1.0  0.63124  0.65328  0.89980  1.0000
  C   C212      1.0  0.37331  0.65677  0.57381  1.0000
  C   C213      1.0  0.12884  0.15536  0.93019  1.0000
  C   C214      1.0  0.87306  0.15556  0.57407  1.0000
  C   C215      1.0  0.36737  0.34758  0.60322  1.0000
  C   C216      1.0  0.63246  0.34551  0.89999  1.0000
  C   C217      1.0  0.86909  0.84664  0.61524  1.0000
  C   C218      1.0  0.13359  0.84713  0.90422  1.0000
  C   C219      1.0  0.65321  0.67449  0.88253  1.0000
  C   C220      1.0  0.35147  0.67822  0.59248  1.0000
  C   C221      1.0  0.15074  0.17657  0.91418  1.0000
  C   C222      1.0  0.85093  0.17645  0.58758  1.0000
  C   C223      1.0  0.15606  0.82630  0.87908  1.0000
  C   C224      1.0  0.64763  0.70030  0.97443  1.0000
  C   C225      1.0  0.35700  0.70451  0.50282  1.0000
  C   C226      1.0  0.14496  0.20279  0.00154  1.0000
  C   C227      1.0  0.85669  0.20329  0.50452  1.0000
  C   C228      1.0  0.15228  0.80085  0.97739  1.0000
  C   C229      1.0  0.66713  0.72232  0.94675  1.0000
  C   C230      1.0  0.33747  0.72652  0.53238  1.0000
  C   C231      1.0  0.16452  0.22474  0.97213  1.0000
  C   C232      1.0  0.83694  0.22508  0.53515  1.0000
  C   C233      1.0  0.17259  0.77966  0.94730  1.0000
  C   C234      1.0  0.69325  0.71849  0.83191  1.0000
  C   C235      1.0  0.31140  0.72224  0.64754  1.0000
  C   C236      1.0  0.19082  0.22041  0.86031  1.0000
  C   C237      1.0  0.81049  0.22003  0.64441  1.0000
  C   C238      1.0  0.19771  0.78401  0.82331  1.0000
  C   C239      1.0  0.69951  0.69186  0.74786  1.0000
  C   C240      1.0  0.30523  0.69518  0.72958  1.0000
  C   C241      1.0  0.19726  0.19335  0.78185  1.0000
  C   C242      1.0  0.80409  0.19231  0.71713  1.0000
  C   C243      1.0  0.20210  0.81014  0.72987  1.0000
  C   C244      1.0  0.67957  0.67048  0.77032  1.0000
  C   C245      1.0  0.32515  0.67377  0.70472  1.0000
  C   C246      1.0  0.17732  0.17200  0.80598  1.0000
  C   C247      1.0  0.82415  0.17108  0.69151  1.0000
  C   C248      1.0  0.18130  0.83067  0.75532  1.0000
  C   C249      1.0  0.71457  0.74081  0.79235  1.0000
  C   C250      1.0  0.28994  0.74428  0.69045  1.0000
  C   C251      1.0  0.21203  0.24266  0.81601  1.0000
  C   C252      1.0  0.78916  0.24205  0.69158  1.0000
  C   C253      1.0  0.28194  0.26218  0.72323  1.0000
  C   C254      1.0  0.71910  0.26129  0.78586  1.0000
  C   C255      1.0  0.78422  0.76052  0.71652  1.0000
  C   C256      1.0  0.21971  0.76242  0.78308  1.0000
  C   C257      1.0  0.73718  0.78385  0.68130  1.0000
  C   C258      1.0  0.26697  0.78648  0.80819  1.0000
  C   C259      1.0  0.23411  0.28551  0.69825  1.0000
  C   C260      1.0  0.76711  0.28512  0.80206  1.0000
  C   C261      1.0  0.25972  0.21949  0.84024  1.0000
  C   C262      1.0  0.74128  0.21843  0.67706  1.0000
  C   C263      1.0  0.76163  0.71755  0.82688  1.0000
  C   C264      1.0  0.24268  0.72029  0.66647  1.0000
  C   C265      1.0  0.75652  0.76374  0.72283  1.0000
  C   C266      1.0  0.24757  0.76624  0.77027  1.0000
  C   C267      1.0  0.25400  0.26555  0.73563  1.0000
  C   C268      1.0  0.74709  0.26485  0.77123  1.0000
  C   C269      1.0  0.23998  0.23952  0.80234  1.0000
  C   C270      1.0  0.76110  0.23876  0.70886  1.0000
  C   C271      1.0  0.74229  0.73762  0.78504  1.0000
  C   C272      1.0  0.26207  0.74062  0.70374  1.0000
  C   C273      1.0  0.68562  0.78057  0.70703  1.0000
  C   C274      1.0  0.31883  0.78448  0.76870  1.0000
  C   C275      1.0  0.18256  0.28249  0.73447  1.0000
  C   C276      1.0  0.81872  0.28267  0.76214  1.0000
  C   C277      1.0  0.31130  0.22222  0.80359  1.0000
  C   C278      1.0  0.68954  0.22083  0.71716  1.0000
  C   C279      1.0  0.81305  0.72056  0.80084  1.0000
  C   C280      1.0  0.19097  0.72204  0.70620  1.0000
  C   C281      1.0  0.67668  0.80962  0.79167  1.0000
  C   C282      1.0  0.32671  0.81368  0.68037  1.0000
  C   C283      1.0  0.17351  0.31094  0.82630  1.0000
  C   C284      1.0  0.82817  0.30945  0.65080  1.0000
  C   C285      1.0  0.31710  0.19098  0.74394  1.0000
  C   C286      1.0  0.68408  0.18951  0.78025  1.0000
  C   C287      1.0  0.81929  0.68944  0.74036  1.0000
  C   C288      1.0  0.18554  0.69097  0.77243  1.0000
  C   C289      1.0  0.64745  0.81772  0.78397  1.0000
  C   C290      1.0  0.35553  0.82323  0.68800  1.0000
  C   C291      1.0  0.14462  0.31969  0.81518  1.0000
  C   C292      1.0  0.85664  0.31988  0.65996  1.0000
  C   C293      1.0  0.34784  0.18341  0.70572  1.0000
  C   C294      1.0  0.65312  0.18257  0.83180  1.0000
  C   C295      1.0  0.84975  0.68178  0.71708  1.0000
  C   C296      1.0  0.15521  0.68253  0.79990  1.0000
  C   C297      1.0  0.63857  0.84728  0.86126  1.0000
  C   C298      1.0  0.36325  0.85300  0.60713  1.0000
  C   C299      1.0  0.13506  0.34834  0.90285  1.0000
  C   C300      1.0  0.86585  0.34714  0.55284  1.0000
  C   C301      1.0  0.35310  0.15159  0.66007  1.0000
  C   C302      1.0  0.64747  0.15050  0.87188  1.0000
  C   C303      1.0  0.85565  0.65003  0.67169  1.0000
  C   C304      1.0  0.15012  0.65079  0.85106  1.0000
  N   N1        1.0  0.63311  0.63435  0.28358  1.0000
  N   N2        1.0  0.36983  0.63774  0.19827  1.0000
  N   N3        1.0  0.13179  0.13521  0.30380  1.0000
  N   N4        1.0  0.86637  0.13491  0.21806  1.0000
  N   N5        1.0  0.36858  0.36721  0.20216  1.0000
  N   N6        1.0  0.62805  0.36446  0.31113  1.0000
  N   N7        1.0  0.86918  0.86625  0.22086  1.0000
  N   N8        1.0  0.13093  0.86724  0.30572  1.0000
  N   N9        1.0  0.71372  0.76751  0.24086  1.0000
  N   N10       1.0  0.28802  0.77064  0.24332  1.0000
  N   N11       1.0  0.21370  0.26757  0.25992  1.0000
  N   N12       1.0  0.78214  0.26501  0.24979  1.0000
  N   N13       1.0  0.29181  0.23075  0.26831  1.0000
  N   N14       1.0  0.70393  0.22798  0.25065  1.0000
  N   N15       1.0  0.79118  0.73134  0.26755  1.0000
  N   N16       1.0  0.21068  0.73246  0.23474  1.0000
  N   N17       1.0  0.50083  0.54419  0.23517  1.0000
  N   N18       1.0  0.99944  0.04461  0.25932  1.0000
  N   N19       1.0  0.49980  0.45926  0.24196  1.0000
  N   N20       1.0  0.99956  0.95959  0.26176  1.0000
  N   N21       1.0  0.46415  0.50206  0.19012  1.0000
  N   N22       1.0  0.53631  0.50137  0.28893  1.0000
  N   N23       1.0  0.96346  0.00203  0.21055  1.0000
  N   N24       1.0  0.03530  0.00208  0.31299  1.0000
  N   N25       1.0  0.63260  0.63359  0.78631  1.0000
  N   N26       1.0  0.37163  0.63654  0.68643  1.0000
  N   N27       1.0  0.13077  0.13551  0.81718  1.0000
  N   N28       1.0  0.87075  0.13517  0.68640  1.0000
  N   N29       1.0  0.36747  0.36684  0.71675  1.0000
  N   N30       1.0  0.63187  0.36435  0.78307  1.0000
  N   N31       1.0  0.86855  0.86616  0.72837  1.0000
  N   N32       1.0  0.13336  0.86665  0.79040  1.0000
  N   N33       1.0  0.71077  0.76886  0.73953  1.0000
  N   N34       1.0  0.29353  0.77218  0.74334  1.0000
  N   N35       1.0  0.20789  0.27056  0.76278  1.0000
  N   N36       1.0  0.79329  0.27001  0.74090  1.0000
  N   N37       1.0  0.28591  0.23414  0.77520  1.0000
  N   N38       1.0  0.71510  0.23304  0.74036  1.0000
  N   N39       1.0  0.78794  0.73239  0.76827  1.0000
  N   N40       1.0  0.21624  0.73444  0.73145  1.0000
  N   N41       1.0  0.50112  0.54215  0.74133  1.0000
  N   N42       1.0  0.00048  0.04289  0.76330  1.0000
  N   N43       1.0  0.50017  0.45716  0.74890  1.0000
  N   N44       1.0  0.00061  0.95791  0.76396  1.0000
  N   N45       1.0  0.46471  0.50007  0.69378  1.0000
  N   N46       1.0  0.53673  0.49928  0.79459  1.0000
  N   N47       1.0  0.96454  0.00037  0.71377  1.0000
  N   N48       1.0  0.03663  0.00045  0.81318  1.0000
  O   O1        1.0  0.74219  0.80620  0.11041  1.0000
  O   O2        1.0  0.25905  0.80803  0.38228  1.0000
  O   O3        1.0  0.24215  0.30596  0.12472  1.0000
  O   O4        1.0  0.75391  0.30330  0.38202  1.0000
  O   O5        1.0  0.26400  0.19177  0.39963  1.0000
  O   O6        1.0  0.73160  0.18892  0.12329  1.0000
  O   O7        1.0  0.76299  0.69267  0.39950  1.0000
  O   O8        1.0  0.23956  0.69539  0.09157  1.0000
  O   O9        1.0  0.73963  0.80749  0.60904  1.0000
  O   O10       1.0  0.26459  0.80969  0.88262  1.0000
  O   O11       1.0  0.23578  0.30899  0.62488  1.0000
  O   O12       1.0  0.76569  0.30904  0.86755  1.0000
  O   O13       1.0  0.25767  0.19605  0.91470  1.0000
  O   O14       1.0  0.74335  0.19464  0.60886  1.0000
  O   O15       1.0  0.75918  0.69398  0.90001  1.0000
  O   O16       1.0  0.24504  0.69700  0.59255  1.0000
  C  Sn1       1.0  0.42377  0.61247  0.52793  1.0000
  C   C305      1.0  0.39648  0.61354  0.62783  1.0000
  C  Sn2       1.0  0.38782  0.59593  0.77208  1.0000
  C  Sn3       1.0  0.40683  0.57685  0.81750  1.0000
  C   C306      1.0  0.43410  0.57579  0.71766  1.0000
  C  Sn4       1.0  0.44278  0.59339  0.57336  1.0000
  O  Te1       1.0  0.43197  0.63028  0.38428  1.0000
  O  Te2       1.0  0.36043  0.59737  0.86993  1.0000
  O  Te3       1.0  0.39860  0.55904  0.96129  1.0000
  O  Te4       1.0  0.47016  0.59196  0.47556  1.0000
  Mg  Mg1       1.0  0.40211  0.57037  0.05402  1.0000
  Mg  Mg2       1.0  0.47148  0.62049  0.29150  1.0000
  C  Sn5       1.0  0.07632  0.88027  0.89042  1.0000
  C   C307      1.0  0.10369  0.88096  0.79149  1.0000
  C  Sn6       1.0  0.11509  0.90647  0.71082  1.0000
  C  Sn7       1.0  0.09881  0.93182  0.72949  1.0000
  C   C308      1.0  0.07146  0.93112  0.82839  1.0000
  C  Sn8       1.0  0.06004  0.90562  0.90909  1.0000
  O  Te5       1.0  0.06535  0.85454  0.96993  1.0000
  O  Te6       1.0  0.14250  0.90662  0.61252  1.0000
  O  Te7       1.0  0.10980  0.95756  0.64987  1.0000
  O  Te8       1.0  0.07562  0.90699  0.00736  1.0000
  Mg  Mg3       1.0  0.14813  0.94694  0.52941  1.0000
  Mg  Mg4       1.0  0.06997  0.86670  0.09059  1.0000
  C  Sn9       1.0  0.57478  0.37829  0.87811  1.0000
  C   C309      1.0  0.60224  0.37878  0.78058  1.0000
  C  Sn10      1.0  0.61398  0.40426  0.70131  1.0000
  C  Sn11      1.0  0.59795  0.42979  0.71999  1.0000
  C   C310      1.0  0.57051  0.42929  0.81748  1.0000
  C  Sn12      1.0  0.55875  0.40382  0.89678  1.0000
  O  Te9       1.0  0.56348  0.35258  0.95622  1.0000
  O  Te10      1.0  0.64147  0.40421  0.60441  1.0000
  O  Te11      1.0  0.60928  0.45551  0.64176  1.0000
  O  Te12      1.0  0.53128  0.40386  0.99365  1.0000
  Mg  Mg5       1.0  0.64760  0.44457  0.52290  1.0000
  Mg  Mg6       1.0  0.56811  0.36505  0.07529  1.0000
  C  Sn13      1.0  0.06254  0.11089  0.38984  1.0000
  C   C311      1.0  0.06454  0.08510  0.30031  1.0000
  C  Sn14      1.0  0.09036  0.07320  0.22367  1.0000
  C  Sn15      1.0  0.11468  0.08736  0.23687  1.0000
  C   C312      1.0  0.11267  0.11313  0.32638  1.0000
  C  Sn16      1.0  0.08686  0.12505  0.40305  1.0000
  O  Te13      1.0  0.03651  0.12240  0.46546  1.0000
  O  Te14      1.0  0.09184  0.04740  0.13478  1.0000
  O  Te15      1.0  0.14072  0.07583  0.16115  1.0000
  O  Te16      1.0  0.08537  0.15084  0.49191  1.0000
  Mg  Mg7       1.0  0.13205  0.04024  0.05379  1.0000
  Mg  Mg8       1.0  0.04518  0.15800  0.57302  1.0000
  C  Sn17      1.0  0.33779  0.27971  0.57890  1.0000
  C   C313      1.0  0.31180  0.27992  0.69586  1.0000
  C  Sn18      1.0  0.30060  0.30562  0.77193  1.0000
  C  Sn19      1.0  0.31567  0.33166  0.73016  1.0000
  C   C314      1.0  0.34164  0.33145  0.61325  1.0000
  C  Sn20      1.0  0.35287  0.30575  0.53712  1.0000
  O  Te17      1.0  0.34859  0.25376  0.50439  1.0000
  O  Te18      1.0  0.27458  0.30529  0.88854  1.0000
  O  Te19      1.0  0.30485  0.35762  0.80479  1.0000
  O  Te20      1.0  0.37887  0.30607  0.42057  1.0000
  Mg  Mg9       1.0  0.26862  0.34614  0.95607  1.0000
  Mg  Mg10      1.0  0.38483  0.26524  0.35289  1.0000
  C  Sn21      1.0  0.19401  0.19044  0.21259  1.0000
  C   C315      1.0  0.19400  0.21577  0.30395  1.0000
  C  Sn22      1.0  0.17443  0.21991  0.45948  1.0000
  C  Sn23      1.0  0.15446  0.19827  0.52513  1.0000
  C   C316      1.0  0.15449  0.17295  0.43381  1.0000
  C  Sn24      1.0  0.17405  0.16880  0.27824  1.0000
  O  Te21      1.0  0.21377  0.18677  0.05738  1.0000
  O  Te22      1.0  0.17482  0.24541  0.54847  1.0000
  O  Te23      1.0  0.13470  0.20196  0.68047  1.0000
  O  Te24      1.0  0.17366  0.14331  0.18929  1.0000
  Mg  Mg11      1.0  0.14367  0.24039  0.75443  1.0000
  Mg  Mg12      1.0  0.16184  0.14677  0.98337  1.0000
  C  Sn25      1.0  0.80923  0.16900  0.22894  1.0000
  C   C317      1.0  0.83544  0.16994  0.11448  1.0000
  C  Sn26      1.0  0.84554  0.19561  0.03028  1.0000
  C  Sn27      1.0  0.82912  0.22087  0.06121  1.0000
  C   C318      1.0  0.80293  0.21992  0.17563  1.0000
  C  Sn28      1.0  0.79281  0.19426  0.25987  1.0000
  O  Te25      1.0  0.79955  0.14310  0.31169  1.0000
  O  Te26      1.0  0.82883  0.19448  0.91637  1.0000
  O  Te27      1.0  0.79585  0.24524  0.97834  1.0000
  O  Te28      1.0  0.76657  0.19385  0.37374  1.0000
  Mg  Mg13      1.0  0.83292  0.23494  0.83476  1.0000
  Mg  Mg14      1.0  0.76246  0.15340  0.45548  1.0000
  C  Sn29      1.0  0.70149  0.29974  0.01623  1.0000
  C   C319      1.0  0.65832  0.32409  0.92757  1.0000
  C  Sn30      1.0  0.67717  0.32871  0.76938  1.0000
  C  Sn31      1.0  0.69661  0.30700  0.69826  1.0000
  C   C320      1.0  0.69680  0.28114  0.78688  1.0000
  C  Sn32      1.0  0.67796  0.27650  0.94510  1.0000
  O  Te29      1.0  0.68246  0.29558  0.17418  1.0000
  O  Te30      1.0  0.67658  0.35476  0.68317  1.0000
  O  Te31      1.0  0.71565  0.31118  0.54018  1.0000
  O  Te32      1.0  0.72152  0.25200  0.03128  1.0000
  Mg  Mg15      1.0  0.70668  0.35026  0.47175  1.0000
  Mg  Mg16      1.0  0.69142  0.25647  0.24266  1.0000
  C  Sn33      1.0  0.84535  0.79848  0.49697  1.0000
  C   C321      1.0  0.84417  0.82463  0.58217  1.0000
  C  Sn34      1.0  0.82396  0.82924  0.73449  1.0000
  C  Sn35      1.0  0.80455  0.80724  0.80316  1.0000
  C   C322      1.0  0.80575  0.78111  0.71799  1.0000
  C  Sn36      1.0  0.82594  0.77648  0.56563  1.0000
  O  Te33      1.0  0.86573  0.79435  0.34487  1.0000
  O  Te34      1.0  0.82318  0.85556  0.81733  1.0000
  O  Te35      1.0  0.78417  0.81139  0.95538  1.0000
  O  Te36      1.0  0.82673  0.75018  0.48283  1.0000
  Mg  Mg17      1.0  0.83453  0.85245  0.02100  1.0000
  Mg  Mg18      1.0  0.85835  0.75479  0.27921  1.0000
  C  Sn37      1.0  0.56400  0.60976  0.36807  1.0000
  C   C323      1.0  0.56610  0.58426  0.27576  1.0000
  C  Sn38      1.0  0.59196  0.57258  0.19771  1.0000
  C  Sn39      1.0  0.61623  0.58669  0.21230  1.0000
  C   C324      1.0  0.61413  0.61218  0.30458  1.0000
  C  Sn40      1.0  0.58827  0.62387  0.38266  1.0000
  O  Te37      1.0  0.53794  0.62104  0.44506  1.0000
  O  Te38      1.0  0.59354  0.54707  0.10605  1.0000
  O  Te39      1.0  0.64231  0.57539  0.13520  1.0000
  O  Te40      1.0  0.58669  0.64936  0.47429  1.0000
  Mg  Mg19      1.0  0.63377  0.54015  0.02408  1.0000
  Mg  Mg20      1.0  0.54647  0.65630  0.55638  1.0000
  C  Sn41      1.0  0.15785  0.77745  0.42573  1.0000
  C   C325      1.0  0.18465  0.77860  0.31860  1.0000
  C  Sn42      1.0  0.19669  0.80505  0.25815  1.0000
  C  Sn43      1.0  0.18165  0.83089  0.30584  1.0000
  C   C326      1.0  0.15487  0.82974  0.41293  1.0000
  C  Sn44      1.0  0.14281  0.80329  0.47343  1.0000
  O  Te41      1.0  0.14622  0.75076  0.48466  1.0000
  O  Te42      1.0  0.22351  0.80565  0.15114  1.0000
  O  Te43      1.0  0.19330  0.85759  0.24681  1.0000
  O  Te44      1.0  0.11601  0.80268  0.58039  1.0000
  Mg  Mg21      1.0  0.23043  0.84726  0.10400  1.0000
  Mg  Mg22      1.0  0.10907  0.76109  0.62768  1.0000
  C  Sn45      1.0  0.88652  0.91964  0.78646  1.0000
  C   C327      1.0  0.88858  0.89395  0.69596  1.0000
  C  Sn46      1.0  0.91443  0.88225  0.61792  1.0000
  C  Sn47      1.0  0.93873  0.89651  0.63068  1.0000
  C   C328      1.0  0.93666  0.92219  0.72116  1.0000
  C  Sn48      1.0  0.91082  0.93391  0.79923  1.0000
  O  Te45      1.0  0.86047  0.93095  0.86347  1.0000
  O  Te46      1.0  0.91597  0.85654  0.52808  1.0000
  O  Te47      1.0  0.96479  0.88518  0.55357  1.0000
  O  Te48      1.0  0.90928  0.95960  0.88904  1.0000
  Mg  Mg23      1.0  0.95619  0.84965  0.44532  1.0000
  Mg  Mg24      1.0  0.86906  0.96650  0.97192  1.0000
  C  Sn49      1.0  0.30580  0.29427  0.98774  1.0000
  C   C329      1.0  0.34633  0.32336  0.05760  1.0000
  C  Sn50      1.0  0.32504  0.32966  0.20203  1.0000
  C  Sn51      1.0  0.30579  0.30795  0.27830  1.0000
  C   C330      1.0  0.30824  0.28040  0.20848  1.0000
  C  Sn52      1.0  0.32952  0.27409  0.06402  1.0000
  O  Te49      1.0  0.32725  0.28845  0.84331  1.0000
  O  Te50      1.0  0.32302  0.35738  0.26952  1.0000
  O  Te51      1.0  0.28433  0.31379  0.42284  1.0000
  O  Te52      1.0  0.28857  0.24486  0.99655  1.0000
  Mg  Mg25      1.0  0.29024  0.35478  0.46766  1.0000
  Mg  Mg26      1.0  0.32136  0.24742  0.79849  1.0000
  C  Sn53      1.0  0.90218  0.92250  0.36133  1.0000
  C   C331      1.0  0.92943  0.92348  0.26051  1.0000
  C  Sn54      1.0  0.93780  0.90615  0.11668  1.0000
  C  Sn55      1.0  0.91854  0.88746  0.07264  1.0000
  C   C332      1.0  0.89132  0.88649  0.17341  1.0000
  C  Sn56      1.0  0.88293  0.90380  0.31729  1.0000
  O  Te53      1.0  0.89427  0.94001  0.50455  1.0000
  O  Te54      1.0  0.96515  0.90751  0.01789  1.0000
  O  Te55      1.0  0.88351  0.86841  0.92929  1.0000
  O  Te56      1.0  0.85560  0.90246  0.41603  1.0000
  Mg  Mg27      1.0  0.92303  0.87794  0.83490  1.0000
  Mg  Mg28      1.0  0.85471  0.93050  0.59899  1.0000
  C  Sn57      1.0  0.43845  0.61125  0.10202  1.0000
  C   C333      1.0  0.43617  0.58558  0.19573  1.0000
  C  Sn58      1.0  0.41022  0.57455  0.27930  1.0000
  C  Sn59      1.0  0.38604  0.58946  0.26891  1.0000
  C   C334      1.0  0.38833  0.61510  0.17522  1.0000
  C  Sn60      1.0  0.41427  0.62616  0.09162  1.0000
  O  Te57      1.0  0.46460  0.62188  0.01949  1.0000
  O  Te58      1.0  0.40846  0.54886  0.37226  1.0000
  O  Te59      1.0  0.35988  0.57880  0.35154  1.0000
  O  Te60      1.0  0.37307  0.65030  0.99868  1.0000
  Mg  Mg29      1.0  0.36817  0.54302  0.46237  1.0000
  Mg  Mg30      1.0  0.41334  0.65615  0.90846  1.0000
  C  Sn61      1.0  0.31371  0.67358  0.20373  1.0000
  C   C335      1.0  0.34034  0.67448  0.09425  1.0000
  C  Sn62      1.0  0.35146  0.70047  0.01907  1.0000
  C  Sn63      1.0  0.33565  0.72610  0.05412  1.0000
  C   C336      1.0  0.30904  0.72520  0.16356  1.0000
  C  Sn64      1.0  0.29790  0.69922  0.23878  1.0000
  O  Te61      1.0  0.30301  0.64736  0.27748  1.0000
  O  Te62      1.0  0.33515  0.69929  0.91000  1.0000
  O  Te63      1.0  0.30340  0.75080  0.98025  1.0000
  O  Te64      1.0  0.27126  0.69886  0.34780  1.0000
  Mg  Mg31      1.0  0.34068  0.74028  0.84047  1.0000
  Mg  Mg32      1.0  0.26572  0.65788  0.41747  1.0000
