data_image0
_chemical_formula_structural       H200C208N48O16C2Sn2C2HTe2HMgC2Sn2C2HTe2HMgC2Sn2C2HTe2HMgC2Sn2C2HTe2HMgC2Sn2C2HTe2HMgC2Sn2C2HTe2HMgC2Sn2C2HTe2HMgC2Sn2C2HTe2HMgC2Sn2C2HTe2HMgC2Sn2C2HTe2HMgC2Sn2C2HTe2HMgC2Sn2C2HTe2HMgC2Sn2C2HTe2HMgC2Sn2C2HTe2HMgC2Sn2C2HTe2HMgC2Sn2C2HTe2HMgC2Sn2C2HTe2HMgC2Sn2C2HTe2HMgC2Sn2C2HTe2HMgC2Sn2C2HTe2HMgC2Sn2C2HTe2HMgC2Sn2C2HTe2HMgC2Sn2C2HTe2HMgC2Sn2C2HTe2HMgC2Sn2C2HTe2HMgC2Sn2C2HTe2HMgC2Sn2C2HTe2HMgC2Sn2C2HTe2HMgC2Sn2C2HTe2HMgC2Sn2C2HTe2HMgC2Sn2C2HTe2HMgC2Sn2C2HTe2HMg
_chemical_formula_sum              "H264 C336 N48 O16 Sn64 Te64 Mg32"
_cell_length_a       47.3513
_cell_length_b       48.2059
_cell_length_c       8.17915
_cell_angle_alpha    88.6675
_cell_angle_beta     86.8316
_cell_angle_gamma    89.8936

_symmetry_space_group_name_H-M    'P1'
_space_group_IT_number       1

loop_
  _space_group_symop_operation_xyz
  'x, y, z'

loop_
  _atom_site_type_symbol
  _atom_site_label
  _atom_site_symmetry_multiplicity
  _atom_site_fract_x
  _atom_site_fract_y
  _atom_site_fract_z
  _atom_site_occupancy
  H   H1        1.0  0.47310  0.60725  0.18420  1.0000
  H   H2        1.0  0.52546  0.60756  0.29107  1.0000
  H   H3        1.0  0.52706  0.39437  0.31060  1.0000
  H   H4        1.0  0.47467  0.39394  0.20546  1.0000
  H   H5        1.0  0.97406  0.10782  0.17835  1.0000
  H   H6        1.0  0.02584  0.10756  0.29043  1.0000
  H   H7        1.0  0.02624  0.89422  0.32092  1.0000
  H   H8        1.0  0.97435  0.89435  0.21011  1.0000
  H   H9        1.0  0.40407  0.52695  0.49406  1.0000
  H   H10       1.0  0.59627  0.52825  0.99918  1.0000
  H   H11       1.0  0.59685  0.47265  0.00645  1.0000
  H   H12       1.0  0.40483  0.47122  0.49892  1.0000
  H   H13       1.0  0.90407  0.02668  0.49560  1.0000
  H   H14       1.0  0.09570  0.02786  0.00883  1.0000
  H   H15       1.0  0.09599  0.97213  0.01507  1.0000
  H   H16       1.0  0.90431  0.97091  0.50402  1.0000
  H   H17       1.0  0.62193  0.65636  0.56859  1.0000
  H   H18       1.0  0.38105  0.66241  0.94099  1.0000
  H   H19       1.0  0.38101  0.34119  0.94407  1.0000
  H   H20       1.0  0.60982  0.33468  0.51363  1.0000
  H   H21       1.0  0.11661  0.15972  0.57430  1.0000
  H   H22       1.0  0.88193  0.16389  0.93631  1.0000
  H   H23       1.0  0.88145  0.84377  0.93079  1.0000
  H   H24       1.0  0.10721  0.83298  0.49610  1.0000
  H   H25       1.0  0.66757  0.76566  0.29462  1.0000
  H   H26       1.0  0.33082  0.76606  0.23364  1.0000
  H   H27       1.0  0.33332  0.23292  0.25176  1.0000
  H   H28       1.0  0.66394  0.23149  0.25095  1.0000
  H   H29       1.0  0.16389  0.26916  0.27125  1.0000
  H   H30       1.0  0.83295  0.26845  0.23445  1.0000
  H   H31       1.0  0.83715  0.73121  0.18995  1.0000
  H   H32       1.0  0.16140  0.73019  0.23529  1.0000
  H   H33       1.0  0.67874  0.78133  0.10492  1.0000
  H   H34       1.0  0.31679  0.78103  0.41573  1.0000
  H   H35       1.0  0.31925  0.21772  0.43745  1.0000
  H   H36       1.0  0.68033  0.21452  0.08086  1.0000
  H   H37       1.0  0.17739  0.28470  0.08543  1.0000
  H   H38       1.0  0.81928  0.28451  0.41395  1.0000
  H   H39       1.0  0.82758  0.71877  0.38922  1.0000
  H   H40       1.0  0.17852  0.71247  0.07114  1.0000
  H   H41       1.0  0.69266  0.82357  0.22745  1.0000
  H   H42       1.0  0.30414  0.82341  0.28175  1.0000
  H   H43       1.0  0.30598  0.17566  0.30980  1.0000
  H   H44       1.0  0.69282  0.17432  0.24519  1.0000
  H   H45       1.0  0.19161  0.32619  0.21322  1.0000
  H   H46       1.0  0.80506  0.32565  0.26738  1.0000
  H   H47       1.0  0.81083  0.67492  0.29248  1.0000
  H   H48       1.0  0.18999  0.67307  0.24456  1.0000
  H   H49       1.0  0.69075  0.80916  0.42526  1.0000
  H   H50       1.0  0.30817  0.80980  0.08601  1.0000
  H   H51       1.0  0.31158  0.18962  0.11203  1.0000
  H   H52       1.0  0.68063  0.18950  0.42792  1.0000
  H   H53       1.0  0.18756  0.31174  0.41061  1.0000
  H   H54       1.0  0.81049  0.31049  0.07658  1.0000
  H   H55       1.0  0.81384  0.68589  0.08769  1.0000
  H   H56       1.0  0.17720  0.68933  0.42304  1.0000
  H   H57       1.0  0.63786  0.80304  0.41156  1.0000
  H   H58       1.0  0.36069  0.80492  0.11405  1.0000
  H   H59       1.0  0.36393  0.19401  0.15494  1.0000
  H   H60       1.0  0.63118  0.19100  0.33338  1.0000
  H   H61       1.0  0.13479  0.30816  0.38448  1.0000
  H   H62       1.0  0.86298  0.30705  0.11805  1.0000
  H   H63       1.0  0.86703  0.69042  0.10494  1.0000
  H   H64       1.0  0.12818  0.69105  0.31793  1.0000
  H   H65       1.0  0.63964  0.81635  0.20980  1.0000
  H   H66       1.0  0.35715  0.81654  0.31573  1.0000
  H   H67       1.0  0.35835  0.18104  0.35629  1.0000
  H   H68       1.0  0.64279  0.17802  0.14282  1.0000
  H   H69       1.0  0.13853  0.32155  0.18314  1.0000
  H   H70       1.0  0.85776  0.32154  0.31212  1.0000
  H   H71       1.0  0.86388  0.68044  0.31259  1.0000
  H   H72       1.0  0.14065  0.67533  0.13667  1.0000
  H   H73       1.0  0.65307  0.84934  0.01740  1.0000
  H   H74       1.0  0.34651  0.86725  0.69053  1.0000
  H   H75       1.0  0.37910  0.14219  0.67323  1.0000
  H   H76       1.0  0.65919  0.14747  0.96147  1.0000
  H   H77       1.0  0.15554  0.35099  0.98892  1.0000
  H   H78       1.0  0.85015  0.35732  0.48326  1.0000
  H   H79       1.0  0.84086  0.63548  0.70165  1.0000
  H   H80       1.0  0.15540  0.64795  0.95084  1.0000
  H   H81       1.0  0.65670  0.86246  0.30663  1.0000
  H   H82       1.0  0.34027  0.86321  0.21662  1.0000
  H   H83       1.0  0.34093  0.13554  0.24937  1.0000
  H   H84       1.0  0.62186  0.13957  0.32353  1.0000
  H   H85       1.0  0.15772  0.36652  0.28619  1.0000
  H   H86       1.0  0.87409  0.35793  0.09772  1.0000
  H   H87       1.0  0.87809  0.63937  0.14357  1.0000
  H   H88       1.0  0.15459  0.63252  0.29821  1.0000
  H   H89       1.0  0.65556  0.84927  0.51042  1.0000
  H   H90       1.0  0.34188  0.85168  0.01278  1.0000
  H   H91       1.0  0.34671  0.14853  0.04642  1.0000
  H   H92       1.0  0.65841  0.13339  0.28043  1.0000
  H   H93       1.0  0.15410  0.35317  0.48938  1.0000
  H   H94       1.0  0.84013  0.36597  0.18661  1.0000
  H   H95       1.0  0.84384  0.63390  0.23768  1.0000
  H   H96       1.0  0.14216  0.64823  0.48173  1.0000
  H   H97       1.0  0.49991  0.47782  0.24795  1.0000
  H   H98       1.0  0.50015  0.52376  0.24525  1.0000
  H   H99       1.0  0.97828  0.00150  0.21456  1.0000
  H   H100      1.0  0.02167  0.00042  0.28785  1.0000
  H   H101      1.0  0.47339  0.60606  0.68295  1.0000
  H   H102      1.0  0.52602  0.60634  0.78590  1.0000
  H   H103      1.0  0.52729  0.39330  0.81873  1.0000
  H   H104      1.0  0.47485  0.39315  0.71281  1.0000
  H   H105      1.0  0.97335  0.10575  0.68544  1.0000
  H   H106      1.0  0.02535  0.10632  0.79395  1.0000
  H   H107      1.0  0.02665  0.89285  0.82767  1.0000
  H   H108      1.0  0.97467  0.89247  0.71698  1.0000
  H   H109      1.0  0.40392  0.52832  0.99152  1.0000
  H   H110      1.0  0.59549  0.52876  0.50213  1.0000
  H   H111      1.0  0.59580  0.47315  0.50638  1.0000
  H   H112      1.0  0.40438  0.47273  0.99399  1.0000
  H   H113      1.0  0.90454  0.02859  0.98551  1.0000
  H   H114      1.0  0.09476  0.02904  0.51094  1.0000
  H   H115      1.0  0.09552  0.97331  0.51596  1.0000
  H   H116      1.0  0.90508  0.97288  0.99235  1.0000
  H   H117      1.0  0.61478  0.66071  0.05998  1.0000
  H   H118      1.0  0.39066  0.66540  0.47982  1.0000
  H   H119      1.0  0.38791  0.33624  0.47003  1.0000
  H   H120      1.0  0.61930  0.33740  0.05136  1.0000
  H   H121      1.0  0.11691  0.16047  0.06512  1.0000
  H   H122      1.0  0.89268  0.16702  0.47619  1.0000
  H   H123      1.0  0.88578  0.83680  0.44728  1.0000
  H   H124      1.0  0.11664  0.83522  0.03605  1.0000
  H   H125      1.0  0.66465  0.76699  0.78186  1.0000
  H   H126      1.0  0.33826  0.76975  0.73511  1.0000
  H   H127      1.0  0.33557  0.23119  0.75727  1.0000
  H   H128      1.0  0.67029  0.23439  0.75619  1.0000
  H   H129      1.0  0.16641  0.26813  0.76283  1.0000
  H   H130      1.0  0.83963  0.27282  0.71951  1.0000
  H   H131      1.0  0.83495  0.73336  0.74876  1.0000
  H   H132      1.0  0.16871  0.73453  0.74194  1.0000
  H   H133      1.0  0.67807  0.78395  0.60048  1.0000
  H   H134      1.0  0.32228  0.78689  0.90510  1.0000
  H   H135      1.0  0.32056  0.21516  0.93776  1.0000
  H   H136      1.0  0.68463  0.22009  0.57281  1.0000
  H   H137      1.0  0.18020  0.28415  0.57900  1.0000
  H   H138      1.0  0.82533  0.28844  0.89835  1.0000
  H   H139      1.0  0.82022  0.71433  0.92024  1.0000
  H   H140      1.0  0.18323  0.71990  0.56025  1.0000
  H   H141      1.0  0.69123  0.82476  0.74014  1.0000
  H   H142      1.0  0.31081  0.82740  0.74625  1.0000
  H   H143      1.0  0.30816  0.17379  0.79988  1.0000
  H   H144      1.0  0.69933  0.17802  0.70744  1.0000
  H   H145      1.0  0.19419  0.32525  0.71312  1.0000
  H   H146      1.0  0.81104  0.32962  0.75491  1.0000
  H   H147      1.0  0.80615  0.67637  0.74722  1.0000
  H   H148      1.0  0.19477  0.67699  0.69138  1.0000
  H   H149      1.0  0.68715  0.80873  0.93351  1.0000
  H   H150      1.0  0.32002  0.81197  0.55938  1.0000
  H   H151      1.0  0.31516  0.18870  0.60503  1.0000
  H   H152      1.0  0.69205  0.19078  0.90334  1.0000
  H   H153      1.0  0.18998  0.30994  0.90844  1.0000
  H   H154      1.0  0.81666  0.31516  0.56221  1.0000
  H   H155      1.0  0.81829  0.69423  0.56853  1.0000
  H   H156      1.0  0.19032  0.69003  0.88835  1.0000
  H   H157      1.0  0.63464  0.80434  0.90358  1.0000
  H   H158      1.0  0.37074  0.80860  0.63143  1.0000
  H   H159      1.0  0.36676  0.19303  0.65919  1.0000
  H   H160      1.0  0.64003  0.19325  0.85171  1.0000
  H   H161      1.0  0.13738  0.30574  0.87780  1.0000
  H   H162      1.0  0.86893  0.31197  0.60065  1.0000
  H   H163      1.0  0.86799  0.69364  0.66405  1.0000
  H   H164      1.0  0.13803  0.69548  0.85693  1.0000
  H   H165      1.0  0.63833  0.81903  0.70518  1.0000
  H   H166      1.0  0.36222  0.82245  0.82444  1.0000
  H   H167      1.0  0.36019  0.17970  0.85901  1.0000
  H   H168      1.0  0.64698  0.18207  0.65096  1.0000
  H   H169      1.0  0.14129  0.31992  0.67839  1.0000
  H   H170      1.0  0.86393  0.32491  0.79887  1.0000
  H   H171      1.0  0.85602  0.67770  0.84995  1.0000
  H   H172      1.0  0.14191  0.68518  0.65287  1.0000
  H   H173      1.0  0.62376  0.85333  0.40700  1.0000
  H   H174      1.0  0.37347  0.85525  0.11751  1.0000
  H   H175      1.0  0.37583  0.14305  0.17085  1.0000
  H   H176      1.0  0.64655  0.14629  0.47309  1.0000
  H   H177      1.0  0.12359  0.35929  0.37723  1.0000
  H   H178      1.0  0.84332  0.35149  0.98999  1.0000
  H   H179      1.0  0.84770  0.64366  0.02816  1.0000
  H   H180      1.0  0.11803  0.63974  0.33243  1.0000
  H   H181      1.0  0.62180  0.85476  0.91106  1.0000
  H   H182      1.0  0.35461  0.85341  0.49510  1.0000
  H   H183      1.0  0.34402  0.13422  0.74663  1.0000
  H   H184      1.0  0.63071  0.14187  0.83406  1.0000
  H   H185      1.0  0.12469  0.35629  0.87854  1.0000
  H   H186      1.0  0.88014  0.36294  0.59897  1.0000
  H   H187      1.0  0.85222  0.65128  0.51197  1.0000
  H   H188      1.0  0.12497  0.64498  0.83523  1.0000
  H   H189      1.0  0.65519  0.86393  0.81666  1.0000
  H   H190      1.0  0.38208  0.85960  0.62839  1.0000
  H   H191      1.0  0.35049  0.14759  0.54487  1.0000
  H   H192      1.0  0.66609  0.13656  0.75846  1.0000
  H   H193      1.0  0.15841  0.36504  0.78700  1.0000
  H   H194      1.0  0.84574  0.37022  0.68370  1.0000
  H   H195      1.0  0.87730  0.64237  0.65782  1.0000
  H   H196      1.0  0.15906  0.63789  0.74448  1.0000
  H   H197      1.0  0.50093  0.47686  0.75248  1.0000
  H   H198      1.0  0.50004  0.52256  0.74782  1.0000
  H   H199      1.0  0.97835  0.99905  0.71838  1.0000
  H   H200      1.0  0.02178  0.99990  0.79245  1.0000
  C   C1        1.0  0.47760  0.56113  0.19383  1.0000
  C   C2        1.0  0.52187  0.56141  0.28901  1.0000
  C   C3        1.0  0.52247  0.44048  0.30002  1.0000
  C   C4        1.0  0.47826  0.44012  0.20503  1.0000
  C   C5        1.0  0.97859  0.06093  0.19314  1.0000
  C   C6        1.0  0.02078  0.06073  0.29096  1.0000
  C   C7        1.0  0.02146  0.94107  0.30756  1.0000
  C   C8        1.0  0.97914  0.94119  0.21179  1.0000
  C   C9        1.0  0.48601  0.58940  0.21140  1.0000
  C   C10       1.0  0.51292  0.58957  0.26639  1.0000
  C   C11       1.0  0.51414  0.41219  0.28293  1.0000
  C   C12       1.0  0.48721  0.41197  0.22854  1.0000
  C   C13       1.0  0.98665  0.08988  0.20856  1.0000
  C   C14       1.0  0.01303  0.08974  0.26612  1.0000
  C   C15       1.0  0.01355  0.91212  0.29129  1.0000
  C   C16       1.0  0.98708  0.91219  0.23492  1.0000
  C   C17       1.0  0.44507  0.52314  0.11785  1.0000
  C   C18       1.0  0.55474  0.52365  0.37328  1.0000
  C   C19       1.0  0.55493  0.47837  0.37755  1.0000
  C   C20       1.0  0.44533  0.47780  0.12092  1.0000
  C   C21       1.0  0.94475  0.02457  0.11327  1.0000
  C   C22       1.0  0.05473  0.02438  0.38297  1.0000
  C   C23       1.0  0.05528  0.97735  0.38835  1.0000
  C   C24       1.0  0.94513  0.97754  0.12036  1.0000
  C   C25       1.0  0.41947  0.51458  0.04169  1.0000
  C   C26       1.0  0.58028  0.51507  0.45236  1.0000
  C   C27       1.0  0.58041  0.48690  0.45481  1.0000
  C   C28       1.0  0.41968  0.48640  0.04328  1.0000
  C   C29       1.0  0.92007  0.01510  0.03790  1.0000
  C   C30       1.0  0.07956  0.01531  0.46128  1.0000
  C   C31       1.0  0.07993  0.98680  0.46409  1.0000
  C   C32       1.0  0.92034  0.98660  0.04166  1.0000
  C   C33       1.0  0.45168  0.55141  0.13962  1.0000
  C   C34       1.0  0.54789  0.55189  0.34542  1.0000
  C   C35       1.0  0.54824  0.45018  0.35584  1.0000
  C   C36       1.0  0.45223  0.44954  0.14824  1.0000
  C   C37       1.0  0.95233  0.05242  0.13592  1.0000
  C   C38       1.0  0.04688  0.05215  0.35208  1.0000
  C   C39       1.0  0.04769  0.94954  0.36495  1.0000
  C   C40       1.0  0.95293  0.94978  0.15205  1.0000
  C   C41       1.0  0.63665  0.65377  0.46111  1.0000
  C   C42       1.0  0.36491  0.65686  0.03834  1.0000
  C   C43       1.0  0.36654  0.34407  0.05236  1.0000
  C   C44       1.0  0.62961  0.34162  0.44847  1.0000
  C   C45       1.0  0.13185  0.15692  0.46966  1.0000
  C   C46       1.0  0.86671  0.15899  0.03958  1.0000
  C   C47       1.0  0.86657  0.84615  0.03769  1.0000
  C   C48       1.0  0.12786  0.84020  0.44327  1.0000
  C   C49       1.0  0.71718  0.74033  0.30258  1.0000
  C   C50       1.0  0.28210  0.74010  0.20668  1.0000
  C   C51       1.0  0.28450  0.25876  0.21487  1.0000
  C   C52       1.0  0.71240  0.25730  0.30154  1.0000
  C   C53       1.0  0.21276  0.24285  0.30376  1.0000
  C   C54       1.0  0.78436  0.24229  0.21123  1.0000
  C   C55       1.0  0.78783  0.75801  0.19542  1.0000
  C   C56       1.0  0.21013  0.75551  0.29469  1.0000
  C   C57       1.0  0.73636  0.78128  0.18214  1.0000
  C   C58       1.0  0.26109  0.77953  0.32374  1.0000
  C   C59       1.0  0.26337  0.21917  0.34118  1.0000
  C   C60       1.0  0.73423  0.21796  0.18488  1.0000
  C   C61       1.0  0.23387  0.28243  0.17693  1.0000
  C   C62       1.0  0.76319  0.28170  0.32698  1.0000
  C   C63       1.0  0.76843  0.71718  0.31679  1.0000
  C   C64       1.0  0.23179  0.71617  0.17817  1.0000
  C   C65       1.0  0.75871  0.76161  0.21466  1.0000
  C   C66       1.0  0.23936  0.75976  0.28582  1.0000
  C   C67       1.0  0.24187  0.23875  0.29430  1.0000
  C   C68       1.0  0.75534  0.23779  0.22614  1.0000
  C   C69       1.0  0.25539  0.26278  0.22255  1.0000
  C   C70       1.0  0.74160  0.26166  0.29169  1.0000
  C   C71       1.0  0.74627  0.73686  0.28316  1.0000
  C   C72       1.0  0.25301  0.73585  0.22008  1.0000
  C   C73       1.0  0.68322  0.77987  0.23538  1.0000
  C   C74       1.0  0.31426  0.77987  0.28341  1.0000
  C   C75       1.0  0.31672  0.21908  0.30467  1.0000
  C   C76       1.0  0.68100  0.21722  0.21388  1.0000
  C   C77       1.0  0.18051  0.28288  0.21761  1.0000
  C   C78       1.0  0.81639  0.28243  0.28249  1.0000
  C   C79       1.0  0.82179  0.71817  0.26084  1.0000
  C   C80       1.0  0.17859  0.71573  0.20390  1.0000
  C   C81       1.0  0.68055  0.80884  0.30781  1.0000
  C   C82       1.0  0.31719  0.80914  0.20705  1.0000
  C   C83       1.0  0.31972  0.18989  0.23526  1.0000
  C   C84       1.0  0.67676  0.18855  0.29697  1.0000
  C   C85       1.0  0.17831  0.31192  0.29025  1.0000
  C   C86       1.0  0.81887  0.31115  0.19912  1.0000
  C   C87       1.0  0.82364  0.68797  0.20555  1.0000
  C   C88       1.0  0.17381  0.68759  0.29190  1.0000
  C   C89       1.0  0.64952  0.81777  0.32810  1.0000
  C   C90       1.0  0.34809  0.81874  0.19489  1.0000
  C   C91       1.0  0.35046  0.17984  0.23245  1.0000
  C   C92       1.0  0.64703  0.17728  0.27389  1.0000
  C   C93       1.0  0.14771  0.32233  0.30375  1.0000
  C   C94       1.0  0.84948  0.32160  0.18887  1.0000
  C   C95       1.0  0.85430  0.67761  0.19443  1.0000
  C   C96       1.0  0.14410  0.67636  0.26844  1.0000
  C   C97       1.0  0.64610  0.84729  0.39151  1.0000
  C   C98       1.0  0.35121  0.84884  0.13212  1.0000
  C   C99       1.0  0.35376  0.15014  0.17163  1.0000
  C   C100      1.0  0.64317  0.14753  0.34127  1.0000
  C   C101      1.0  0.14556  0.35191  0.36753  1.0000
  C   C102      1.0  0.85204  0.35081  0.11180  1.0000
  C   C103      1.0  0.85621  0.64699  0.14845  1.0000
  C   C104      1.0  0.13937  0.64767  0.34933  1.0000
  C   C105      1.0  0.47770  0.55996  0.69589  1.0000
  C   C106      1.0  0.52207  0.56020  0.78844  1.0000
  C   C107      1.0  0.52311  0.43943  0.80576  1.0000
  C   C108      1.0  0.47887  0.43926  0.71078  1.0000
  C   C109      1.0  0.97862  0.05896  0.69964  1.0000
  C   C110      1.0  0.02103  0.05942  0.79448  1.0000
  C   C111      1.0  0.02154  0.93970  0.81270  1.0000
  C   C112      1.0  0.97918  0.93936  0.71684  1.0000
  C   C113      1.0  0.48624  0.58822  0.71112  1.0000
  C   C114      1.0  0.51327  0.58837  0.76406  1.0000
  C   C115      1.0  0.51451  0.41118  0.79025  1.0000
  C   C116      1.0  0.48759  0.41108  0.73553  1.0000
  C   C117      1.0  0.98628  0.08802  0.71485  1.0000
  C   C118      1.0  0.01278  0.08830  0.77045  1.0000
  C   C119      1.0  0.01379  0.91063  0.79768  1.0000
  C   C120      1.0  0.98731  0.91043  0.74117  1.0000
  C   C121      1.0  0.44513  0.52204  0.62149  1.0000
  C   C122      1.0  0.55527  0.52272  0.87339  1.0000
  C   C123      1.0  0.55572  0.47740  0.87951  1.0000
  C   C124      1.0  0.44569  0.47677  0.62596  1.0000
  C   C125      1.0  0.94464  0.02251  0.62007  1.0000
  C   C126      1.0  0.05530  0.02341  0.88446  1.0000
  C   C127      1.0  0.05544  0.97635  0.89061  1.0000
  C   C128      1.0  0.94485  0.97543  0.62689  1.0000
  C   C129      1.0  0.41961  0.51330  0.54530  1.0000
  C   C130      1.0  0.58099  0.51439  0.95137  1.0000
  C   C131      1.0  0.58128  0.48621  0.95500  1.0000
  C   C132      1.0  0.41997  0.48511  0.54787  1.0000
  C   C133      1.0  0.91971  0.01313  0.54670  1.0000
  C   C134      1.0  0.08026  0.01420  0.96079  1.0000
  C   C135      1.0  0.08035  0.98570  0.96435  1.0000
  C   C136      1.0  0.91984  0.98461  0.55084  1.0000
  C   C137      1.0  0.45176  0.55027  0.64248  1.0000
  C   C138      1.0  0.54808  0.55086  0.84546  1.0000
  C   C139      1.0  0.54909  0.44910  0.85934  1.0000
  C   C140      1.0  0.45287  0.44863  0.65366  1.0000
  C   C141      1.0  0.95239  0.05032  0.64258  1.0000
  C   C142      1.0  0.04740  0.05118  0.85364  1.0000
  C   C143      1.0  0.04786  0.94846  0.86804  1.0000
  C   C144      1.0  0.95286  0.94765  0.65697  1.0000
  C   C145      1.0  0.63200  0.65631  0.96843  1.0000
  C   C146      1.0  0.37081  0.65877  0.54538  1.0000
  C   C147      1.0  0.36999  0.34162  0.55472  1.0000
  C   C148      1.0  0.63558  0.34326  0.95546  1.0000
  C   C149      1.0  0.13250  0.15681  0.96310  1.0000
  C   C150      1.0  0.87310  0.16062  0.54550  1.0000
  C   C151      1.0  0.86839  0.84203  0.53608  1.0000
  C   C152      1.0  0.13413  0.84222  0.95080  1.0000
  C   C153      1.0  0.71420  0.74154  0.81389  1.0000
  C   C154      1.0  0.28935  0.74451  0.68449  1.0000
  C   C155      1.0  0.28694  0.25694  0.70830  1.0000
  C   C156      1.0  0.71909  0.26081  0.78446  1.0000
  C   C157      1.0  0.21498  0.24158  0.79755  1.0000
  C   C158      1.0  0.79093  0.24591  0.68750  1.0000
  C   C159      1.0  0.78537  0.75811  0.70561  1.0000
  C   C160      1.0  0.21754  0.76007  0.77434  1.0000
  C   C161      1.0  0.73420  0.78154  0.68509  1.0000
  C   C162      1.0  0.26804  0.78386  0.80360  1.0000
  C   C163      1.0  0.26534  0.21772  0.83775  1.0000
  C   C164      1.0  0.74009  0.22179  0.66223  1.0000
  C   C165      1.0  0.23638  0.28074  0.66759  1.0000
  C   C166      1.0  0.76944  0.28504  0.80844  1.0000
  C   C167      1.0  0.76548  0.71827  0.83615  1.0000
  C   C168      1.0  0.23846  0.72076  0.65493  1.0000
  C   C169      1.0  0.75619  0.76196  0.72336  1.0000
  C   C170      1.0  0.24664  0.76439  0.76032  1.0000
  C   C171      1.0  0.24409  0.23731  0.78844  1.0000
  C   C172      1.0  0.76176  0.24155  0.69986  1.0000
  C   C173      1.0  0.25779  0.26107  0.71480  1.0000
  C   C174      1.0  0.74818  0.26520  0.76929  1.0000
  C   C175      1.0  0.74341  0.73781  0.79772  1.0000
  C   C176      1.0  0.26014  0.74054  0.69287  1.0000
  C   C177      1.0  0.68106  0.78131  0.73237  1.0000
  C   C178      1.0  0.32134  0.78417  0.77226  1.0000
  C   C179      1.0  0.31870  0.21721  0.80456  1.0000
  C   C180      1.0  0.68708  0.22095  0.70531  1.0000
  C   C181      1.0  0.18316  0.28188  0.71100  1.0000
  C   C182      1.0  0.82265  0.28640  0.76634  1.0000
  C   C183      1.0  0.81842  0.71844  0.78844  1.0000
  C   C184      1.0  0.18529  0.72068  0.69303  1.0000
  C   C185      1.0  0.67813  0.80969  0.81253  1.0000
  C   C186      1.0  0.32571  0.81271  0.68765  1.0000
  C   C187      1.0  0.32229  0.18840  0.73072  1.0000
  C   C188      1.0  0.68469  0.19141  0.77817  1.0000
  C   C189      1.0  0.18091  0.31059  0.78754  1.0000
  C   C190      1.0  0.82496  0.31542  0.68507  1.0000
  C   C191      1.0  0.82235  0.69110  0.69867  1.0000
  C   C192      1.0  0.18173  0.69125  0.76621  1.0000
  C   C193      1.0  0.64725  0.81931  0.82661  1.0000
  C   C194      1.0  0.35620  0.82299  0.69628  1.0000
  C   C195      1.0  0.35306  0.17859  0.73343  1.0000
  C   C196      1.0  0.65444  0.18024  0.77599  1.0000
  C   C197      1.0  0.15012  0.32050  0.80005  1.0000
  C   C198      1.0  0.85554  0.32597  0.67600  1.0000
  C   C199      1.0  0.85200  0.67915  0.71870  1.0000
  C   C200      1.0  0.15068  0.68205  0.77394  1.0000
  C   C201      1.0  0.64406  0.84840  0.89667  1.0000
  C   C202      1.0  0.36016  0.85239  0.62381  1.0000
  C   C203      1.0  0.35699  0.14905  0.67132  1.0000
  C   C204      1.0  0.65237  0.14991  0.83566  1.0000
  C   C205      1.0  0.14694  0.34977  0.86724  1.0000
  C   C206      1.0  0.85812  0.35571  0.60681  1.0000
  C   C207      1.0  0.85589  0.65053  0.64354  1.0000
  C   C208      1.0  0.14720  0.65159  0.82907  1.0000
  N   N1        1.0  0.63543  0.63319  0.36306  1.0000
  N   N2        1.0  0.36469  0.63359  0.12020  1.0000
  N   N3        1.0  0.36750  0.36525  0.14590  1.0000
  N   N4        1.0  0.63352  0.36664  0.39108  1.0000
  N   N5        1.0  0.13167  0.13579  0.37529  1.0000
  N   N6        1.0  0.86697  0.13612  0.12535  1.0000
  N   N7        1.0  0.86722  0.86682  0.13533  1.0000
  N   N8        1.0  0.13281  0.86577  0.39948  1.0000
  N   N9        1.0  0.71103  0.76729  0.24999  1.0000
  N   N10       1.0  0.28708  0.76677  0.26007  1.0000
  N   N11       1.0  0.28954  0.23215  0.27725  1.0000
  N   N12       1.0  0.70777  0.23061  0.24469  1.0000
  N   N13       1.0  0.20768  0.26941  0.24082  1.0000
  N   N14       1.0  0.78924  0.26898  0.26384  1.0000
  N   N15       1.0  0.79392  0.73092  0.24748  1.0000
  N   N16       1.0  0.20536  0.72893  0.23719  1.0000
  N   N17       1.0  0.49989  0.54499  0.24292  1.0000
  N   N18       1.0  0.50020  0.45658  0.25058  1.0000
  N   N19       1.0  0.99960  0.04358  0.24463  1.0000
  N   N20       1.0  0.00031  0.95839  0.25748  1.0000
  N   N21       1.0  0.46090  0.50047  0.16149  1.0000
  N   N22       1.0  0.53921  0.50102  0.33254  1.0000
  N   N23       1.0  0.95958  0.00118  0.15806  1.0000
  N   N24       1.0  0.04038  0.00074  0.34423  1.0000
  N   N25       1.0  0.63311  0.63428  0.88097  1.0000
  N   N26       1.0  0.36665  0.63390  0.60458  1.0000
  N   N27       1.0  0.36801  0.36481  0.63108  1.0000
  N   N28       1.0  0.63584  0.36671  0.87537  1.0000
  N   N29       1.0  0.13237  0.13517  0.87263  1.0000
  N   N30       1.0  0.86905  0.13590  0.60729  1.0000
  N   N31       1.0  0.86729  0.86468  0.61797  1.0000
  N   N32       1.0  0.13540  0.86669  0.88256  1.0000
  N   N33       1.0  0.70849  0.76813  0.75274  1.0000
  N   N34       1.0  0.29434  0.77105  0.74256  1.0000
  N   N35       1.0  0.29172  0.23047  0.77438  1.0000
  N   N36       1.0  0.71414  0.23423  0.72923  1.0000
  N   N37       1.0  0.21014  0.26806  0.73261  1.0000
  N   N38       1.0  0.79574  0.27247  0.74543  1.0000
  N   N39       1.0  0.79108  0.73158  0.76690  1.0000
  N   N40       1.0  0.21251  0.73344  0.72000  1.0000
  N   N41       1.0  0.49997  0.54379  0.74459  1.0000
  N   N42       1.0  0.50095  0.45563  0.75558  1.0000
  N   N43       1.0  0.99998  0.04193  0.74978  1.0000
  N   N44       1.0  0.00021  0.95679  0.76231  1.0000
  N   N45       1.0  0.46109  0.49954  0.66603  1.0000
  N   N46       1.0  0.53983  0.49991  0.83420  1.0000
  N   N47       1.0  0.95948  0.99903  0.66354  1.0000
  N   N48       1.0  0.04062  0.99985  0.84758  1.0000
  O   O1        1.0  0.73576  0.80406  0.11103  1.0000
  O   O2        1.0  0.26101  0.80167  0.39612  1.0000
  O   O3        1.0  0.26288  0.19716  0.42092  1.0000
  O   O4        1.0  0.73529  0.19590  0.11179  1.0000
  O   O5        1.0  0.23431  0.30451  0.09797  1.0000
  O   O6        1.0  0.76282  0.30411  0.39664  1.0000
  O   O7        1.0  0.76861  0.69460  0.39007  1.0000
  O   O8        1.0  0.23270  0.69414  0.10468  1.0000
  O   O9        1.0  0.73414  0.80410  0.61097  1.0000
  O   O10       1.0  0.26735  0.80564  0.87957  1.0000
  O   O11       1.0  0.26446  0.19587  0.91908  1.0000
  O   O12       1.0  0.74026  0.19990  0.58724  1.0000
  O   O13       1.0  0.23707  0.30276  0.58771  1.0000
  O   O14       1.0  0.76866  0.30714  0.88120  1.0000
  O   O15       1.0  0.76576  0.69589  0.91210  1.0000
  O   O16       1.0  0.23869  0.69871  0.58145  1.0000
  C   C209      1.0  0.56871  0.60357  0.47462  1.0000
  C   C210      1.0  0.56857  0.57931  0.38442  1.0000
  C  Sn1       1.0  0.59266  0.57138  0.29059  1.0000
  C  Sn2       1.0  0.61733  0.58810  0.28728  1.0000
  C   C211      1.0  0.61726  0.61232  0.37803  1.0000
  C   C212      1.0  0.59303  0.62006  0.47147  1.0000
  H   H201      1.0  0.54997  0.60955  0.54699  1.0000
  O  Te1       1.0  0.59216  0.54708  0.20116  1.0000
  O  Te2       1.0  0.64171  0.58066  0.19458  1.0000
  H   H202      1.0  0.59315  0.63884  0.54137  1.0000
  Mg  Mg1       1.0  0.63062  0.54568  0.09341  1.0000
  C   C213      1.0  0.38342  0.58151  0.20436  1.0000
  C   C214      1.0  0.38480  0.60778  0.12836  1.0000
  C  Sn3       1.0  0.40887  0.61582  0.03262  1.0000
  C  Sn4       1.0  0.43196  0.59718  0.01280  1.0000
  C   C215      1.0  0.43037  0.57094  0.08925  1.0000
  C   C216      1.0  0.40618  0.56311  0.18483  1.0000
  H   H203      1.0  0.36470  0.57544  0.27824  1.0000
  O  Te3       1.0  0.40036  0.63821  0.95759  1.0000
  O  Te4       1.0  0.44674  0.60075  0.91774  1.0000
  H   H204      1.0  0.40512  0.54276  0.24357  1.0000
  Mg  Mg2       1.0  0.43808  0.63888  0.84017  1.0000
  C   C217      1.0  0.42183  0.38560  0.02359  1.0000
  C   C218      1.0  0.39563  0.38364  0.11055  1.0000
  C  Sn5       1.0  0.38537  0.40583  0.20340  1.0000
  C  Sn6       1.0  0.40168  0.43042  0.20902  1.0000
  C   C219      1.0  0.42785  0.43218  0.12150  1.0000
  C   C220      1.0  0.43792  0.40985  0.02902  1.0000
  H   H205      1.0  0.42008  0.36441  0.95196  1.0000
  O  Te5       1.0  0.35916  0.40351  0.28959  1.0000
  O  Te6       1.0  0.39192  0.45291  0.30080  1.0000
  H   H206      1.0  0.44865  0.40746  0.96162  1.0000
  Mg  Mg3       1.0  0.35492  0.43978  0.39728  1.0000
  C   C221      1.0  0.60487  0.42989  0.29252  1.0000
  C   C222      1.0  0.57703  0.43025  0.35879  1.0000
  C  Sn7       1.0  0.56691  0.40852  0.46170  1.0000
  C  Sn8       1.0  0.58504  0.38604  0.49876  1.0000
  C   C223      1.0  0.61286  0.38588  0.43194  1.0000
  C   C224      1.0  0.62277  0.40773  0.32906  1.0000
  H   H207      1.0  0.61254  0.44680  0.21299  1.0000
  O  Te7       1.0  0.53903  0.40920  0.52682  1.0000
  O  Te8       1.0  0.57547  0.36406  0.60131  1.0000
  H   H208      1.0  0.64433  0.40746  0.27785  1.0000
  Mg  Mg4       1.0  0.53578  0.37441  0.66018  1.0000
  C   C225      1.0  0.06598  0.10402  0.48546  1.0000
  C   C226      1.0  0.06687  0.07979  0.39476  1.0000
  C  Sn9       1.0  0.09141  0.07270  0.30225  1.0000
  C  Sn10      1.0  0.11546  0.09023  0.30079  1.0000
  C   C227      1.0  0.11436  0.11442  0.39203  1.0000
  C   C228      1.0  0.08970  0.12132  0.48414  1.0000
  H   H209      1.0  0.04691  0.10935  0.55679  1.0000
  O  Te9       1.0  0.09193  0.04842  0.21229  1.0000
  O  Te10      1.0  0.14025  0.08364  0.20945  1.0000
  H   H210      1.0  0.08902  0.14007  0.55443  1.0000
  Mg  Mg5       1.0  0.13061  0.04834  0.10687  1.0000
  C   C229      1.0  0.88458  0.08327  0.20247  1.0000
  C   C230      1.0  0.88634  0.10973  0.12911  1.0000
  C  Sn11      1.0  0.91047  0.11763  0.03334  1.0000
  C  Sn12      1.0  0.93320  0.09864  0.01078  1.0000
  C   C231      1.0  0.93122  0.07221  0.08460  1.0000
  C   C232      1.0  0.90698  0.06453  0.18023  1.0000
  H   H211      1.0  0.86582  0.07732  0.27639  1.0000
  O  Te11      1.0  0.90235  0.14022  0.96098  1.0000
  O  Te12      1.0  0.94801  0.10206  0.91563  1.0000
  H   H212      1.0  0.90561  0.04403  0.23693  1.0000
  Mg  Mg6       1.0  0.93997  0.14056  0.84228  1.0000
  C   C233      1.0  0.88552  0.91821  0.22416  1.0000
  C   C234      1.0  0.88595  0.89393  0.13397  1.0000
  C  Sn13      1.0  0.91027  0.88645  0.04079  1.0000
  C  Sn14      1.0  0.93460  0.90364  0.03813  1.0000
  C   C235      1.0  0.93396  0.92788  0.12887  1.0000
  C   C236      1.0  0.90950  0.93517  0.22166  1.0000
  H   H213      1.0  0.86660  0.92385  0.29603  1.0000
  O  Te13      1.0  0.90080  0.85820  0.95135  1.0000
  O  Te14      1.0  0.94966  0.89273  0.94609  1.0000
  H   H214      1.0  0.90919  0.95396  0.29156  1.0000
  Mg  Mg7       1.0  0.93937  0.85752  0.84463  1.0000
  C   C237      1.0  0.11482  0.91728  0.30042  1.0000
  C   C238      1.0  0.11442  0.89326  0.39958  1.0000
  C  Sn15      1.0  0.09024  0.88625  0.49739  1.0000
  C  Sn16      1.0  0.06605  0.90365  0.49559  1.0000
  C   C239      1.0  0.06666  0.92762  0.39588  1.0000
  C   C240      1.0  0.09096  0.93444  0.29853  1.0000
  H   H215      1.0  0.13361  0.92255  0.22503  1.0000
  O  Te15      1.0  0.09021  0.86219  0.59578  1.0000
  O  Te16      1.0  0.04161  0.89713  0.59209  1.0000
  H   H216      1.0  0.09126  0.95302  0.22169  1.0000
  Mg  Mg8       1.0  0.05187  0.86213  0.70572  1.0000
  C   C241      1.0  0.69900  0.68484  0.28145  1.0000
  C   C242      1.0  0.69835  0.71231  0.33252  1.0000
  C  Sn17      1.0  0.67706  0.72117  0.44447  1.0000
  C  Sn18      1.0  0.65606  0.70213  0.50625  1.0000
  C   C243      1.0  0.65690  0.67468  0.45448  1.0000
  C   C244      1.0  0.67830  0.66604  0.34237  1.0000
  H   H217      1.0  0.71556  0.67815  0.19478  1.0000
  O  Te17      1.0  0.67672  0.74869  0.49416  1.0000
  O  Te18      1.0  0.63454  0.71042  0.61830  1.0000
  H   H218      1.0  0.67881  0.64477  0.30293  1.0000
  Mg  Mg9       1.0  0.64309  0.75010  0.64895  1.0000
  C   C245      1.0  0.31335  0.67408  0.20812  1.0000
  C   C246      1.0  0.33693  0.67537  0.09765  1.0000
  C  Sn19      1.0  0.34439  0.70037  0.01690  1.0000
  C  Sn20      1.0  0.32791  0.72449  0.04760  1.0000
  C   C247      1.0  0.30437  0.72299  0.15843  1.0000
  C   C248      1.0  0.29709  0.69787  0.23852  1.0000
  H   H219      1.0  0.30772  0.65465  0.27017  1.0000
  O  Te19      1.0  0.35847  0.69736  0.90686  1.0000
  O  Te20      1.0  0.32537  0.74582  0.96862  1.0000
  H   H220      1.0  0.27884  0.69689  0.32413  1.0000
  Mg  Mg10      1.0  0.35946  0.73659  0.82932  1.0000
  C   C249      1.0  0.31450  0.32516  0.21340  1.0000
  C   C250      1.0  0.34049  0.32372  0.12431  1.0000
  C  Sn21      1.0  0.34859  0.29935  0.04517  1.0000
  C  Sn22      1.0  0.33028  0.27603  0.05561  1.0000
  C   C251      1.0  0.30431  0.27769  0.14494  1.0000
  C   C252      1.0  0.29643  0.30218  0.22370  1.0000
  H   H221      1.0  0.30839  0.34411  0.27427  1.0000
  O  Te21      1.0  0.36509  0.29433  0.95673  1.0000
  O  Te22      1.0  0.32830  0.24750  0.97765  1.0000
  H   H222      1.0  0.27630  0.30330  0.29258  1.0000
  Mg  Mg11      1.0  0.36596  0.25617  0.87181  1.0000
  C   C253      1.0  0.64682  0.28504  0.46651  1.0000
  C   C254      1.0  0.64971  0.31375  0.44460  1.0000
  C  Sn23      1.0  0.67412  0.32492  0.36499  1.0000
  C  Sn24      1.0  0.69599  0.30697  0.30632  1.0000
  C   C255      1.0  0.69288  0.27827  0.32874  1.0000
  C   C256      1.0  0.66837  0.26731  0.40863  1.0000
  H   H223      1.0  0.62785  0.27656  0.52824  1.0000
  O  Te23      1.0  0.67667  0.35366  0.34418  1.0000
  O  Te24      1.0  0.72059  0.31757  0.22627  1.0000
  H   H224      1.0  0.66613  0.24508  0.42548  1.0000
  Mg  Mg12      1.0  0.71421  0.35818  0.22742  1.0000
  C   C257      1.0  0.19486  0.18724  0.29667  1.0000
  C   C258      1.0  0.19341  0.21526  0.33666  1.0000
  C  Sn25      1.0  0.17105  0.22501  0.43828  1.0000
  C  Sn26      1.0  0.14978  0.20632  0.50086  1.0000
  C   C259      1.0  0.15143  0.17833  0.46022  1.0000
  C   C260      1.0  0.17389  0.16880  0.35839  1.0000
  H   H225      1.0  0.21225  0.17986  0.21796  1.0000
  O  Te25      1.0  0.16992  0.25306  0.47696  1.0000
  O  Te26      1.0  0.12720  0.21551  0.60272  1.0000
  H   H226      1.0  0.17502  0.14710  0.32754  1.0000
  Mg  Mg13      1.0  0.13497  0.25565  0.62041  1.0000
  C   C261      1.0  0.81626  0.17678  0.21724  1.0000
  C   C262      1.0  0.83934  0.17786  0.10322  1.0000
  C  Sn27      1.0  0.84627  0.20264  0.01851  1.0000
  C  Sn28      1.0  0.82973  0.22674  0.04881  1.0000
  C   C263      1.0  0.80669  0.22545  0.16320  1.0000
  C   C264      1.0  0.79994  0.20054  0.24724  1.0000
  H   H227      1.0  0.81105  0.15751  0.28234  1.0000
  O  Te27      1.0  0.85986  0.19943  0.90496  1.0000
  O  Te28      1.0  0.82664  0.24785  0.96591  1.0000
  H   H228      1.0  0.78208  0.19971  0.33559  1.0000
  Mg  Mg14      1.0  0.86021  0.23841  0.82276  1.0000
  C   C265      1.0  0.80550  0.81343  0.22080  1.0000
  C   C266      1.0  0.80480  0.78711  0.15311  1.0000
  C  Sn29      1.0  0.82644  0.77870  0.04202  1.0000
  C  Sn30      1.0  0.83962  0.79310  0.99815  1.0000
  C   C267      1.0  0.84967  0.82331  0.06664  1.0000
  C   C268      1.0  0.82791  0.83152  0.17765  1.0000
  H   H229      1.0  0.78867  0.81978  0.30675  1.0000
  O  Te29      1.0  0.81587  0.74840  0.97550  1.0000
  O  Te30      1.0  0.86152  0.78522  0.88746  1.0000
  H   H230      1.0  0.82846  0.85190  0.23012  1.0000
  Mg  Mg15      1.0  0.85066  0.74717  0.82983  1.0000
  C   C269      1.0  0.14437  0.78331  0.45611  1.0000
  C   C270      1.0  0.14757  0.81203  0.43669  1.0000
  C  Sn31      1.0  0.17229  0.82315  0.36052  1.0000
  C  Sn32      1.0  0.19418  0.80513  0.30281  1.0000
  C   C271      1.0  0.19077  0.77642  0.32273  1.0000
  C   C272      1.0  0.16594  0.76552  0.39917  1.0000
  H   H231      1.0  0.12516  0.77486  0.51517  1.0000
  O  Te31      1.0  0.17514  0.85189  0.34217  1.0000
  O  Te32      1.0  0.21910  0.81569  0.22619  1.0000
  H   H232      1.0  0.16347  0.74328  0.41409  1.0000
  Mg  Mg16      1.0  0.21305  0.85633  0.22975  1.0000
  C   C273      1.0  0.57731  0.61444  0.98054  1.0000
  C   C274      1.0  0.60538  0.61501  0.91819  1.0000
  C  Sn33      1.0  0.61603  0.59352  0.82095  1.0000
  C  Sn34      1.0  0.59819  0.57107  0.78565  1.0000
  C   C275      1.0  0.57013  0.57070  0.84852  1.0000
  C   C276      1.0  0.55969  0.59231  0.94573  1.0000
  H   H233      1.0  0.57876  0.63509  0.05568  1.0000
  O  Te33      1.0  0.64414  0.59442  0.75969  1.0000
  O  Te34      1.0  0.60829  0.54933  0.68874  1.0000
  H   H234      1.0  0.53795  0.59187  0.99390  1.0000
  Mg  Mg17      1.0  0.64812  0.55992  0.63356  1.0000
  C   C277      1.0  0.42142  0.61353  0.49420  1.0000
  C   C278      1.0  0.39359  0.61399  0.56062  1.0000
  C  Sn35      1.0  0.38352  0.59248  0.66536  1.0000
  C  Sn36      1.0  0.40169  0.57013  0.70412  1.0000
  C   C279      1.0  0.42950  0.56987  0.63714  1.0000
  C   C280      1.0  0.43936  0.59149  0.53243  1.0000
  H   H235      1.0  0.42906  0.63027  0.41326  1.0000
  O  Te35      1.0  0.35566  0.59327  0.73060  1.0000
  O  Te36      1.0  0.39217  0.54836  0.80851  1.0000
  H   H236      1.0  0.46091  0.59114  0.48111  1.0000
  Mg  Mg18      1.0  0.35248  0.55878  0.86679  1.0000
  C   C281      1.0  0.43400  0.39648  0.52398  1.0000
  C   C282      1.0  0.43184  0.42216  0.59953  1.0000
  C  Sn37      1.0  0.40746  0.42898  0.69427  1.0000
  C  Sn38      1.0  0.38487  0.40968  0.71356  1.0000
  C   C283      1.0  0.38725  0.38403  0.63757  1.0000
  C   C284      1.0  0.41173  0.37743  0.54299  1.0000
  H   H237      1.0  0.45294  0.39137  0.45087  1.0000
  O  Te37      1.0  0.40565  0.45473  0.76885  1.0000
  O  Te38      1.0  0.36028  0.41595  0.80763  1.0000
  H   H238      1.0  0.41340  0.35754  0.48460  1.0000
  Mg  Mg19      1.0  0.36782  0.45370  0.88491  1.0000
  C   C285      1.0  0.61665  0.41830  0.78665  1.0000
  C   C286      1.0  0.61690  0.39386  0.88188  1.0000
  C  Sn39      1.0  0.59302  0.38598  0.97988  1.0000
  C  Sn40      1.0  0.56847  0.40292  0.98230  1.0000
  C   C287      1.0  0.56843  0.42732  0.88649  1.0000
  C   C288      1.0  0.59244  0.43501  0.78891  1.0000
  H   H239      1.0  0.63522  0.42425  0.71107  1.0000
  O  Te39      1.0  0.60318  0.36543  0.07432  1.0000
  O  Te40      1.0  0.55386  0.39946  0.07909  1.0000
  H   H240      1.0  0.59223  0.45392  0.71511  1.0000
  Mg  Mg20      1.0  0.56502  0.36418  0.18640  1.0000
  C   C289      1.0  0.06645  0.10349  0.98317  1.0000
  C   C290      1.0  0.06733  0.07916  0.89338  1.0000
  C  Sn41      1.0  0.09186  0.07197  0.80116  1.0000
  C  Sn42      1.0  0.11593  0.08950  0.79908  1.0000
  C   C291      1.0  0.11484  0.11378  0.88942  1.0000
  C   C292      1.0  0.09018  0.12078  0.98124  1.0000
  H   H241      1.0  0.05692  0.11282  0.05429  1.0000
  O  Te41      1.0  0.09238  0.04759  0.71211  1.0000
  O  Te42      1.0  0.14072  0.08280  0.70801  1.0000
  H   H242      1.0  0.09905  0.14354  0.05083  1.0000
  Mg  Mg21      1.0  0.13106  0.04739  0.60673  1.0000
  C   C293      1.0  0.88536  0.08346  0.70149  1.0000
  C   C294      1.0  0.88802  0.10932  0.62130  1.0000
  C  Sn43      1.0  0.91243  0.11582  0.52431  1.0000
  C  Sn44      1.0  0.93455  0.09602  0.50749  1.0000
  C   C295      1.0  0.93168  0.07021  0.58812  1.0000
  C   C296      1.0  0.90717  0.06392  0.68491  1.0000
  H   H243      1.0  0.86639  0.07859  0.77631  1.0000
  O  Te43      1.0  0.91475  0.14175  0.44509  1.0000
  O  Te44      1.0  0.95917  0.10197  0.41126  1.0000
  H   H244      1.0  0.90511  0.04389  0.74690  1.0000
  Mg  Mg22      1.0  0.95241  0.14015  0.32761  1.0000
  C   C297      1.0  0.93434  0.89542  0.52417  1.0000
  C   C298      1.0  0.93210  0.92100  0.60073  1.0000
  C  Sn45      1.0  0.90738  0.92798  0.69179  1.0000
  C  Sn46      1.0  0.88451  0.90893  0.70629  1.0000
  C   C299      1.0  0.88698  0.88338  0.62934  1.0000
  C   C300      1.0  0.91181  0.87662  0.53847  1.0000
  H   H245      1.0  0.95356  0.89017  0.45394  1.0000
  O  Te45      1.0  0.90549  0.95363  0.76743  1.0000
  O  Te46      1.0  0.85957  0.91537  0.79661  1.0000
  H   H246      1.0  0.91355  0.85680  0.47930  1.0000
  Mg  Mg23      1.0  0.86713  0.95291  0.87716  1.0000
  C   C301      1.0  0.09035  0.88959  0.01138  1.0000
  C   C302      1.0  0.10671  0.88419  0.92144  1.0000
  C  Sn47      1.0  0.11574  0.90624  0.81768  1.0000
  C  Sn48      1.0  0.09847  0.93018  0.80400  1.0000
  C   C303      1.0  0.07260  0.93145  0.89459  1.0000
  C   C304      1.0  0.06377  0.90927  0.99801  1.0000
  H   H247      1.0  0.08352  0.87244  0.09148  1.0000
  O  Te47      1.0  0.14167  0.90442  0.72864  1.0000
  O  Te48      1.0  0.10699  0.95251  0.70125  1.0000
  H   H248      1.0  0.05326  0.91435  0.06772  1.0000
  Mg  Mg24      1.0  0.14408  0.94023  0.60495  1.0000
  C   C305      1.0  0.69744  0.68531  0.82073  1.0000
  C   C306      1.0  0.69541  0.71361  0.85300  1.0000
  C  Sn49      1.0  0.67186  0.72396  0.94248  1.0000
  C  Sn50      1.0  0.65953  0.70951  0.00060  1.0000
  C   C307      1.0  0.65223  0.67731  0.96777  1.0000
  C   C308      1.0  0.67588  0.66717  0.87807  1.0000
  H   H249      1.0  0.71574  0.67747  0.75140  1.0000
  O  Te49      1.0  0.67017  0.75229  0.97357  1.0000
  O  Te50      1.0  0.63577  0.71930  0.09038  1.0000
  H   H250      1.0  0.67745  0.64526  0.85319  1.0000
  Mg  Mg25      1.0  0.64313  0.75961  0.10125  1.0000
  C   C309      1.0  0.30558  0.68817  0.68536  1.0000
  C   C310      1.0  0.30853  0.71671  0.65568  1.0000
  C  Sn51      1.0  0.33284  0.72725  0.57181  1.0000
  C  Sn52      1.0  0.35455  0.70882  0.51674  1.0000
  C   C311      1.0  0.35139  0.68030  0.54694  1.0000
  C   C312      1.0  0.32698  0.66997  0.63103  1.0000
  H   H251      1.0  0.28669  0.68017  0.75034  1.0000
  O  Te51      1.0  0.33545  0.75582  0.54325  1.0000
  O  Te52      1.0  0.37906  0.71880  0.43257  1.0000
  H   H252      1.0  0.32470  0.64787  0.65389  1.0000
  Mg  Mg26      1.0  0.37281  0.75941  0.42330  1.0000
  C   C313      1.0  0.31504  0.32420  0.68320  1.0000
  C   C314      1.0  0.34252  0.32222  0.61283  1.0000
  C  Sn53      1.0  0.35262  0.29694  0.55319  1.0000
  C  Sn54      1.0  0.33484  0.27324  0.56433  1.0000
  C   C315      1.0  0.30737  0.27544  0.63484  1.0000
  C   C316      1.0  0.29748  0.30084  0.69418  1.0000
  H   H253      1.0  0.30737  0.34385  0.72903  1.0000
  O  Te53      1.0  0.38014  0.29532  0.48330  1.0000
  O  Te54      1.0  0.34440  0.24772  0.50564  1.0000
  H   H254      1.0  0.27619  0.30237  0.74856  1.0000
  Mg  Mg27      1.0  0.38353  0.25596  0.42078  1.0000
  C   C317      1.0  0.68834  0.32707  0.79469  1.0000
  C   C318      1.0  0.66235  0.32433  0.88317  1.0000
  C  Sn55      1.0  0.65461  0.29899  0.95887  1.0000
  C  Sn56      1.0  0.67328  0.27599  0.94555  1.0000
  C   C319      1.0  0.69923  0.27895  0.85685  1.0000
  C   C320      1.0  0.70677  0.30440  0.78155  1.0000
  H   H255      1.0  0.69418  0.34677  0.73649  1.0000
  O  Te55      1.0  0.63810  0.30054  0.04675  1.0000
  O  Te56      1.0  0.67561  0.25435  0.02005  1.0000
  H   H256      1.0  0.72690  0.30652  0.71313  1.0000
  Mg  Mg28      1.0  0.63779  0.26142  0.12647  1.0000
  C   C321      1.0  0.15217  0.21243  0.99650  1.0000
  C   C322      1.0  0.15188  0.18504  0.94425  1.0000
  C  Sn57      1.0  0.17430  0.17485  0.84478  1.0000
  C  Sn58      1.0  0.19743  0.19245  0.79697  1.0000
  C   C323      1.0  0.19754  0.21982  0.84998  1.0000
  C   C324      1.0  0.17498  0.22980  0.94945  1.0000
  H   H257      1.0  0.14427  0.22408  0.07353  1.0000
  O  Te57      1.0  0.17366  0.14744  0.79363  1.0000
  O  Te58      1.0  0.22013  0.18280  0.69766  1.0000
  H   H258      1.0  0.17523  0.25100  0.98997  1.0000
  Mg  Mg29      1.0  0.20954  0.14387  0.65933  1.0000
  C   C325      1.0  0.85539  0.21710  0.51161  1.0000
  C   C326      1.0  0.85446  0.18921  0.56226  1.0000
  C  Sn59      1.0  0.83055  0.17856  0.64965  1.0000
  C  Sn60      1.0  0.80717  0.19619  0.68679  1.0000
  C   C327      1.0  0.80829  0.22406  0.63546  1.0000
  C   C328      1.0  0.83232  0.23451  0.54813  1.0000
  H   H259      1.0  0.87397  0.22518  0.44397  1.0000
  O  Te59      1.0  0.82999  0.15065  0.69938  1.0000
  O  Te60      1.0  0.78300  0.18608  0.77390  1.0000
  H   H260      1.0  0.83302  0.25609  0.50884  1.0000
  Mg  Mg30      1.0  0.79232  0.14657  0.81515  1.0000
  C   C329      1.0  0.83798  0.77510  0.53128  1.0000
  C   C330      1.0  0.81328  0.77634  0.63260  1.0000
  C  Sn61      1.0  0.80407  0.80162  0.69662  1.0000
  C  Sn62      1.0  0.81993  0.82608  0.65824  1.0000
  C   C331      1.0  0.84459  0.82463  0.55666  1.0000
  C   C332      1.0  0.85362  0.79923  0.49331  1.0000
  H   H261      1.0  0.84496  0.75545  0.48217  1.0000
  O  Te61      1.0  0.77935  0.80248  0.79770  1.0000
  O  Te62      1.0  0.81120  0.85163  0.72051  1.0000
  H   H262      1.0  0.87273  0.79828  0.41477  1.0000
  Mg  Mg31      1.0  0.77610  0.84219  0.85281  1.0000
  C   C333      1.0  0.19721  0.81520  0.76155  1.0000
  C   C334      1.0  0.19894  0.78779  0.81967  1.0000
  C  Sn63      1.0  0.17738  0.77659  0.92447  1.0000
  C  Sn64      1.0  0.15367  0.79319  0.97170  1.0000
  C   C335      1.0  0.15212  0.82058  0.91279  1.0000
  C   C336      1.0  0.17382  0.83158  0.80803  1.0000
  H   H263      1.0  0.21399  0.82370  0.68042  1.0000
  O  Te63      1.0  0.17945  0.74918  0.98146  1.0000
  O  Te64      1.0  0.14136  0.78645  0.07626  1.0000
  H   H264      1.0  0.17247  0.85279  0.76296  1.0000
  Mg  Mg32      1.0  0.15383  0.74794  0.12152  1.0000
