data_image0
_chemical_formula_structural       Ni4H256C304N48O16C2Sn2C2HTe2HMgC2Sn2C2HTe2HMgC2Sn2C2HTe2HMgC2Sn2C2HTe2HMgC2Sn2C2HTe2HMgC2Sn2C2HTe2HMgC2Sn2C2HTe2HMgC2Sn2C2HTe2HMgC2Sn2C2HTe2HMgC2Sn2C2HTe2HMgC2Sn2C2HTe2HMgC2Sn2C2HTe2HMgC2Sn2C2HTe2HMgC2Sn2C2HTe2HMgC2Sn2C2HTe2HMgC2Sn2C2HTe2HMg
_chemical_formula_sum              "Ni4 H288 C368 N48 O16 Sn32 Te32 Mg16"
_cell_length_a       50.2385
_cell_length_b       46.4356
_cell_length_c       8.14434
_cell_angle_alpha    89.4663
_cell_angle_beta     74.6273
_cell_angle_gamma    89.876

_symmetry_space_group_name_H-M    'P1'
_space_group_IT_number       1

loop_
  _space_group_symop_operation_xyz
  'x, y, z'

loop_
  _atom_site_type_symbol
  _atom_site_label
  _atom_site_symmetry_multiplicity
  _atom_site_fract_x
  _atom_site_fract_y
  _atom_site_fract_z
  _atom_site_occupancy
  Ni  Ni1       1.0  0.50041  0.50167  0.23796  1.0000
  Ni  Ni2       1.0  0.99938  0.00210  0.26153  1.0000
  Ni  Ni3       1.0  0.50064  0.49973  0.74542  1.0000
  Ni  Ni4       1.0  0.00060  0.00046  0.76341  1.0000
  H   H1        1.0  0.47601  0.61065  0.20567  1.0000
  H   H2        1.0  0.52654  0.61017  0.26022  1.0000
  H   H3        1.0  0.97441  0.11080  0.22539  1.0000
  H   H4        1.0  0.02473  0.11080  0.28326  1.0000
  H   H5        1.0  0.52460  0.39279  0.27064  1.0000
  H   H6        1.0  0.47356  0.39331  0.22501  1.0000
  H   H7        1.0  0.02539  0.89339  0.28406  1.0000
  H   H8        1.0  0.97436  0.89333  0.23843  1.0000
  H   H9        1.0  0.41140  0.52965  0.57742  1.0000
  H   H10       1.0  0.59123  0.52775  0.89977  1.0000
  H   H11       1.0  0.91101  0.02954  0.59811  1.0000
  H   H12       1.0  0.09077  0.02938  0.92047  1.0000
  H   H13       1.0  0.59056  0.46967  0.90469  1.0000
  H   H14       1.0  0.41094  0.47152  0.58099  1.0000
  H   H15       1.0  0.09089  0.97124  0.92012  1.0000
  H   H16       1.0  0.91114  0.97141  0.59887  1.0000
  H   H17       1.0  0.54249  0.60078  0.98135  1.0000
  H   H18       1.0  0.46097  0.60167  0.49072  1.0000
  H   H19       1.0  0.04108  0.10139  0.00731  1.0000
  H   H20       1.0  0.54186  0.39664  0.99465  1.0000
  H   H21       1.0  0.04335  0.89846  0.00876  1.0000
  H   H22       1.0  0.57808  0.63677  0.98177  1.0000
  H   H23       1.0  0.42611  0.63862  0.48834  1.0000
  H   H24       1.0  0.07619  0.13767  0.01266  1.0000
  H   H25       1.0  0.57795  0.36040  0.98718  1.0000
  H   H26       1.0  0.07986  0.86270  0.00038  1.0000
  H   H27       1.0  0.63660  0.58869  0.10615  1.0000
  H   H28       1.0  0.36616  0.59184  0.37833  1.0000
  H   H29       1.0  0.13509  0.08905  0.13070  1.0000
  H   H30       1.0  0.86386  0.08895  0.39701  1.0000
  H   H31       1.0  0.63411  0.40967  0.12347  1.0000
  H   H32       1.0  0.59961  0.55325  0.10487  1.0000
  H   H33       1.0  0.40255  0.55532  0.37489  1.0000
  H   H34       1.0  0.09796  0.05367  0.13256  1.0000
  H   H35       1.0  0.90127  0.05375  0.39420  1.0000
  H   H36       1.0  0.59901  0.44707  0.11272  1.0000
  H   H37       1.0  0.61478  0.65674  0.50914  1.0000
  H   H38       1.0  0.38704  0.65959  0.96668  1.0000
  H   H39       1.0  0.11464  0.15677  0.53398  1.0000
  H   H40       1.0  0.88237  0.15600  0.98244  1.0000
  H   H41       1.0  0.38842  0.34381  0.98319  1.0000
  H   H42       1.0  0.60706  0.34093  0.52982  1.0000
  H   H43       1.0  0.88872  0.84360  0.99836  1.0000
  H   H44       1.0  0.11167  0.84323  0.52590  1.0000
  H   H45       1.0  0.63039  0.70311  0.56826  1.0000
  H   H46       1.0  0.13123  0.20266  0.59711  1.0000
  H   H47       1.0  0.86488  0.20144  0.91400  1.0000
  H   H48       1.0  0.37455  0.29564  0.93886  1.0000
  H   H49       1.0  0.66611  0.74109  0.52211  1.0000
  H   H50       1.0  0.16733  0.24022  0.54961  1.0000
  H   H51       1.0  0.82796  0.23816  0.95766  1.0000
  H   H52       1.0  0.33999  0.25638  0.99507  1.0000
  H   H53       1.0  0.72106  0.68834  0.14647  1.0000
  H   H54       1.0  0.21990  0.18887  0.15481  1.0000
  H   H55       1.0  0.77754  0.18727  0.36862  1.0000
  H   H56       1.0  0.28178  0.31188  0.33392  1.0000
  H   H57       1.0  0.68412  0.65100  0.18595  1.0000
  H   H58       1.0  0.18255  0.15196  0.19654  1.0000
  H   H59       1.0  0.81564  0.15126  0.33099  1.0000
  H   H60       1.0  0.31758  0.35046  0.28623  1.0000
  H   H61       1.0  0.67173  0.76435  0.26706  1.0000
  H   H62       1.0  0.33045  0.76925  0.20331  1.0000
  H   H63       1.0  0.17128  0.26576  0.30213  1.0000
  H   H64       1.0  0.82449  0.26314  0.20897  1.0000
  H   H65       1.0  0.33318  0.23519  0.25993  1.0000
  H   H66       1.0  0.66242  0.23209  0.25910  1.0000
  H   H67       1.0  0.83253  0.73575  0.25849  1.0000
  H   H68       1.0  0.16850  0.73455  0.26219  1.0000
  H   H69       1.0  0.69092  0.77883  0.06975  1.0000
  H   H70       1.0  0.31215  0.78237  0.40492  1.0000
  H   H71       1.0  0.18927  0.27821  0.09703  1.0000
  H   H72       1.0  0.80642  0.27600  0.41134  1.0000
  H   H73       1.0  0.31343  0.21493  0.43569  1.0000
  H   H74       1.0  0.68191  0.21014  0.09338  1.0000
  H   H75       1.0  0.81250  0.71716  0.44043  1.0000
  H   H76       1.0  0.18765  0.71708  0.07543  1.0000
  H   H77       1.0  0.69489  0.82520  0.18739  1.0000
  H   H78       1.0  0.30476  0.82874  0.29299  1.0000
  H   H79       1.0  0.19557  0.32542  0.19441  1.0000
  H   H80       1.0  0.80262  0.32325  0.31145  1.0000
  H   H81       1.0  0.31124  0.17375  0.25597  1.0000
  H   H82       1.0  0.68483  0.17160  0.29611  1.0000
  H   H83       1.0  0.81004  0.67421  0.27352  1.0000
  H   H84       1.0  0.19483  0.67456  0.23685  1.0000
  H   H85       1.0  0.68649  0.81234  0.39688  1.0000
  H   H86       1.0  0.31249  0.81689  0.08297  1.0000
  H   H87       1.0  0.18947  0.31467  0.40684  1.0000
  H   H88       1.0  0.80352  0.31246  0.10577  1.0000
  H   H89       1.0  0.32660  0.19312  0.06888  1.0000
  H   H90       1.0  0.66818  0.19284  0.47083  1.0000
  H   H91       1.0  0.82572  0.69194  0.08102  1.0000
  H   H92       1.0  0.18003  0.69115  0.43246  1.0000
  H   H93       1.0  0.63795  0.80244  0.38982  1.0000
  H   H94       1.0  0.36205  0.80932  0.07922  1.0000
  H   H95       1.0  0.13955  0.30560  0.42614  1.0000
  H   H96       1.0  0.85389  0.30176  0.04221  1.0000
  H   H97       1.0  0.37015  0.19878  0.16041  1.0000
  H   H98       1.0  0.62556  0.19515  0.36536  1.0000
  H   H99       1.0  0.86910  0.69888  0.17381  1.0000
  H   H100      1.0  0.13449  0.69496  0.36108  1.0000
  H   H101      1.0  0.64551  0.81296  0.17513  1.0000
  H   H102      1.0  0.35509  0.81921  0.29358  1.0000
  H   H103      1.0  0.14496  0.31387  0.20952  1.0000
  H   H104      1.0  0.85406  0.30903  0.25243  1.0000
  H   H105      1.0  0.35527  0.18010  0.35075  1.0000
  H   H106      1.0  0.64184  0.17433  0.18841  1.0000
  H   H107      1.0  0.85386  0.68169  0.36867  1.0000
  H   H108      1.0  0.14886  0.67912  0.16250  1.0000
  H   H109      1.0  0.65256  0.86428  0.79410  1.0000
  H   H110      1.0  0.38401  0.85964  0.61171  1.0000
  H   H111      1.0  0.13421  0.34724  0.03902  1.0000
  H   H112      1.0  0.86679  0.34351  0.41820  1.0000
  H   H113      1.0  0.34544  0.14600  0.54988  1.0000
  H   H114      1.0  0.62527  0.14563  0.90955  1.0000
  H   H115      1.0  0.85022  0.64468  0.55341  1.0000
  H   H116      1.0  0.15590  0.64601  0.96946  1.0000
  H   H117      1.0  0.65661  0.86337  0.25071  1.0000
  H   H118      1.0  0.37518  0.86121  0.10124  1.0000
  H   H119      1.0  0.15862  0.36476  0.25957  1.0000
  H   H120      1.0  0.87168  0.35204  0.06325  1.0000
  H   H121      1.0  0.35053  0.13552  0.18528  1.0000
  H   H122      1.0  0.64597  0.13267  0.38291  1.0000
  H   H123      1.0  0.88420  0.64716  0.16388  1.0000
  H   H124      1.0  0.12293  0.64210  0.37245  1.0000
  H   H125      1.0  0.64963  0.85313  0.46744  1.0000
  H   H126      1.0  0.34105  0.86906  0.22196  1.0000
  H   H127      1.0  0.15355  0.35679  0.47830  1.0000
  H   H128      1.0  0.84061  0.36079  0.21772  1.0000
  H   H129      1.0  0.36474  0.15424  0.99186  1.0000
  H   H130      1.0  0.62980  0.15358  0.56230  1.0000
  H   H131      1.0  0.84932  0.63563  0.21507  1.0000
  H   H132      1.0  0.15857  0.63343  0.30897  1.0000
  H   H133      1.0  0.47656  0.60863  0.70974  1.0000
  H   H134      1.0  0.52723  0.60808  0.76060  1.0000
  H   H135      1.0  0.97485  0.10908  0.73824  1.0000
  H   H136      1.0  0.02568  0.10911  0.78718  1.0000
  H   H137      1.0  0.52469  0.39063  0.78050  1.0000
  H   H138      1.0  0.47422  0.39123  0.72581  1.0000
  H   H139      1.0  0.02629  0.89176  0.79020  1.0000
  H   H140      1.0  0.97546  0.89162  0.74029  1.0000
  H   H141      1.0  0.41021  0.53171  0.08131  1.0000
  H   H142      1.0  0.58997  0.52976  0.40371  1.0000
  H   H143      1.0  0.90953  0.03106  0.09891  1.0000
  H   H144      1.0  0.08842  0.03097  0.43132  1.0000
  H   H145      1.0  0.58940  0.47159  0.40658  1.0000
  H   H146      1.0  0.40934  0.47357  0.08822  1.0000
  H   H147      1.0  0.08881  0.97284  0.42832  1.0000
  H   H148      1.0  0.90936  0.97293  0.10353  1.0000
  H   H149      1.0  0.54248  0.60292  0.48123  1.0000
  H   H150      1.0  0.45936  0.60400  0.98607  1.0000
  H   H151      1.0  0.04098  0.10440  0.50375  1.0000
  H   H152      1.0  0.95704  0.10433  0.01051  1.0000
  H   H153      1.0  0.53910  0.40065  0.49622  1.0000
  H   H154      1.0  0.57874  0.63827  0.48156  1.0000
  H   H155      1.0  0.42371  0.64053  0.99077  1.0000
  H   H156      1.0  0.07744  0.13978  0.50030  1.0000
  H   H157      1.0  0.92028  0.13955  0.01413  1.0000
  H   H158      1.0  0.57337  0.36350  0.50688  1.0000
  H   H159      1.0  0.63692  0.58771  0.60855  1.0000
  H   H160      1.0  0.36642  0.59052  0.86719  1.0000
  H   H161      1.0  0.13571  0.09032  0.63369  1.0000
  H   H162      1.0  0.63518  0.41071  0.60717  1.0000
  H   H163      1.0  0.13614  0.91301  0.61498  1.0000
  H   H164      1.0  0.60056  0.55152  0.60796  1.0000
  H   H165      1.0  0.40205  0.55336  0.87007  1.0000
  H   H166      1.0  0.09979  0.05387  0.62781  1.0000
  H   H167      1.0  0.59840  0.44680  0.61245  1.0000
  H   H168      1.0  0.09895  0.94876  0.62236  1.0000
  H   H169      1.0  0.61348  0.65568  0.01153  1.0000
  H   H170      1.0  0.39115  0.65946  0.46245  1.0000
  H   H171      1.0  0.11071  0.15800  0.03943  1.0000
  H   H172      1.0  0.89168  0.15901  0.46889  1.0000
  H   H173      1.0  0.38396  0.34557  0.48472  1.0000
  H   H174      1.0  0.61635  0.34391  0.02119  1.0000
  H   H175      1.0  0.88627  0.84441  0.49993  1.0000
  H   H176      1.0  0.11712  0.84484  0.02331  1.0000
  H   H177      1.0  0.36816  0.29866  0.43024  1.0000
  H   H178      1.0  0.63313  0.29706  0.08234  1.0000
  H   H179      1.0  0.33237  0.26064  0.48398  1.0000
  H   H180      1.0  0.66960  0.25978  0.03106  1.0000
  H   H181      1.0  0.27954  0.31285  0.87261  1.0000
  H   H182      1.0  0.72010  0.31146  0.62464  1.0000
  H   H183      1.0  0.31666  0.35015  0.82611  1.0000
  H   H184      1.0  0.68239  0.34807  0.66947  1.0000
  H   H185      1.0  0.66930  0.76450  0.75193  1.0000
  H   H186      1.0  0.33533  0.76877  0.72191  1.0000
  H   H187      1.0  0.16635  0.26622  0.77619  1.0000
  H   H188      1.0  0.83470  0.26598  0.73386  1.0000
  H   H189      1.0  0.32822  0.23637  0.73699  1.0000
  H   H190      1.0  0.67266  0.23480  0.78462  1.0000
  H   H191      1.0  0.83004  0.73486  0.73709  1.0000
  H   H192      1.0  0.17395  0.73615  0.77020  1.0000
  H   H193      1.0  0.68899  0.78286  0.56852  1.0000
  H   H194      1.0  0.31619  0.78687  0.90633  1.0000
  H   H195      1.0  0.18581  0.28582  0.59664  1.0000
  H   H196      1.0  0.81522  0.28848  0.89685  1.0000
  H   H197      1.0  0.30985  0.22348  0.94034  1.0000
  H   H198      1.0  0.69038  0.22209  0.58111  1.0000
  H   H199      1.0  0.81103  0.72164  0.93838  1.0000
  H   H200      1.0  0.19226  0.72279  0.56935  1.0000
  H   H201      1.0  0.69160  0.82617  0.72927  1.0000
  H   H202      1.0  0.31113  0.82967  0.74040  1.0000
  H   H203      1.0  0.18871  0.32768  0.77066  1.0000
  H   H204      1.0  0.81268  0.32647  0.69130  1.0000
  H   H205      1.0  0.30479  0.17635  0.84115  1.0000
  H   H206      1.0  0.69514  0.17488  0.68025  1.0000
  H   H207      1.0  0.80592  0.67473  0.83209  1.0000
  H   H208      1.0  0.19903  0.67636  0.68217  1.0000
  H   H209      1.0  0.67753  0.80881  0.92513  1.0000
  H   H210      1.0  0.32602  0.81245  0.54680  1.0000
  H   H211      1.0  0.17373  0.30887  0.96054  1.0000
  H   H212      1.0  0.82878  0.30471  0.51787  1.0000
  H   H213      1.0  0.30974  0.18741  0.63010  1.0000
  H   H214      1.0  0.69299  0.18549  0.88795  1.0000
  H   H215      1.0  0.81367  0.68627  0.62014  1.0000
  H   H216      1.0  0.19164  0.68836  0.89183  1.0000
  H   H217      1.0  0.63280  0.80113  0.85033  1.0000
  H   H218      1.0  0.37090  0.80721  0.62420  1.0000
  H   H219      1.0  0.12983  0.30256  0.87193  1.0000
  H   H220      1.0  0.87189  0.30261  0.61777  1.0000
  H   H221      1.0  0.35970  0.19724  0.60139  1.0000
  H   H222      1.0  0.64272  0.19567  0.94229  1.0000
  H   H223      1.0  0.86276  0.69573  0.61779  1.0000
  H   H224      1.0  0.14211  0.69644  0.89749  1.0000
  H   H225      1.0  0.64634  0.81748  0.65073  1.0000
  H   H226      1.0  0.35649  0.82341  0.82152  1.0000
  H   H227      1.0  0.14439  0.32107  0.68046  1.0000
  H   H228      1.0  0.85625  0.32401  0.79341  1.0000
  H   H229      1.0  0.35569  0.18847  0.81623  1.0000
  H   H230      1.0  0.64380  0.18920  0.72930  1.0000
  H   H231      1.0  0.85578  0.68666  0.83438  1.0000
  H   H232      1.0  0.14880  0.68684  0.68274  1.0000
  H   H233      1.0  0.62256  0.85362  0.36506  1.0000
  H   H234      1.0  0.34735  0.85942  0.00569  1.0000
  H   H235      1.0  0.12502  0.35672  0.38844  1.0000
  H   H236      1.0  0.84003  0.35389  0.00571  1.0000
  H   H237      1.0  0.38542  0.14706  0.13341  1.0000
  H   H238      1.0  0.61105  0.14331  0.41572  1.0000
  H   H239      1.0  0.86411  0.65283  0.01730  1.0000
  H   H240      1.0  0.14423  0.64932  0.50951  1.0000
  H   H241      1.0  0.63890  0.84787  0.99558  1.0000
  H   H242      1.0  0.34865  0.86949  0.67277  1.0000
  H   H243      1.0  0.11443  0.35443  0.89253  1.0000
  H   H244      1.0  0.88635  0.35442  0.55901  1.0000
  H   H245      1.0  0.37515  0.14615  0.62863  1.0000
  H   H246      1.0  0.65704  0.13729  0.76056  1.0000
  H   H247      1.0  0.87751  0.64462  0.65400  1.0000
  H   H248      1.0  0.12837  0.64473  0.87097  1.0000
  H   H249      1.0  0.61760  0.85296  0.85544  1.0000
  H   H250      1.0  0.36280  0.85327  0.47288  1.0000
  H   H251      1.0  0.14929  0.36589  0.84663  1.0000
  H   H252      1.0  0.85132  0.36493  0.59646  1.0000
  H   H253      1.0  0.34230  0.13757  0.76617  1.0000
  H   H254      1.0  0.65612  0.14329  0.97591  1.0000
  H   H255      1.0  0.84340  0.63585  0.77217  1.0000
  H   H256      1.0  0.16259  0.63667  0.75260  1.0000
  C   C1        1.0  0.48036  0.56273  0.21013  1.0000
  C   C2        1.0  0.52154  0.56232  0.25903  1.0000
  C   C3        1.0  0.97895  0.06293  0.23244  1.0000
  C   C4        1.0  0.01999  0.06293  0.28371  1.0000
  C   C5        1.0  0.52036  0.44074  0.26507  1.0000
  C   C6        1.0  0.47879  0.44115  0.22249  1.0000
  C   C7        1.0  0.02043  0.94128  0.28308  1.0000
  C   C8        1.0  0.97887  0.94124  0.24018  1.0000
  C   C9        1.0  0.48841  0.59221  0.21953  1.0000
  C   C10       1.0  0.51394  0.59196  0.24719  1.0000
  C   C11       1.0  0.98685  0.09248  0.24070  1.0000
  C   C12       1.0  0.01227  0.09248  0.27008  1.0000
  C   C13       1.0  0.51221  0.41126  0.25743  1.0000
  C   C14       1.0  0.48637  0.41152  0.23467  1.0000
  C   C15       1.0  0.01273  0.91172  0.27242  1.0000
  C   C16       1.0  0.98688  0.91169  0.24974  1.0000
  C   C17       1.0  0.44891  0.52591  0.16397  1.0000
  C   C18       1.0  0.55191  0.52484  0.31364  1.0000
  C   C19       1.0  0.94802  0.02571  0.18442  1.0000
  C   C20       1.0  0.05054  0.02573  0.33967  1.0000
  C   C21       1.0  0.55146  0.47752  0.31577  1.0000
  C   C22       1.0  0.44819  0.47857  0.16997  1.0000
  C   C23       1.0  0.05083  0.97839  0.33772  1.0000
  C   C24       1.0  0.94789  0.97834  0.18832  1.0000
  C   C25       1.0  0.42462  0.51711  0.11604  1.0000
  C   C26       1.0  0.57556  0.51549  0.36780  1.0000
  C   C27       1.0  0.92400  0.01663  0.13435  1.0000
  C   C28       1.0  0.07427  0.01660  0.39372  1.0000
  C   C29       1.0  0.57528  0.48623  0.36916  1.0000
  C   C30       1.0  0.42418  0.48785  0.11969  1.0000
  C   C31       1.0  0.07446  0.98735  0.39223  1.0000
  C   C32       1.0  0.92390  0.98736  0.13687  1.0000
  C   C33       1.0  0.45523  0.55474  0.18127  1.0000
  C   C34       1.0  0.54637  0.55381  0.29097  1.0000
  C   C35       1.0  0.95395  0.05463  0.20284  1.0000
  C   C36       1.0  0.04479  0.05465  0.31702  1.0000
  C   C37       1.0  0.54533  0.44876  0.29568  1.0000
  C   C38       1.0  0.45376  0.44965  0.19356  1.0000
  C   C39       1.0  0.04530  0.94956  0.31425  1.0000
  C   C40       1.0  0.95379  0.94947  0.21078  1.0000
  C   C41       1.0  0.56814  0.57530  0.29418  1.0000
  C   C42       1.0  0.43379  0.57678  0.17897  1.0000
  C   C43       1.0  0.06653  0.07624  0.31940  1.0000
  C   C44       1.0  0.93210  0.07624  0.20091  1.0000
  C   C45       1.0  0.56628  0.42656  0.30364  1.0000
  C   C46       1.0  0.56301  0.59990  0.39729  1.0000
  C   C47       1.0  0.43903  0.60143  0.07358  1.0000
  C   C48       1.0  0.06150  0.10112  0.42012  1.0000
  C   C49       1.0  0.93672  0.10106  0.09694  1.0000
  C   C50       1.0  0.55979  0.40240  0.41220  1.0000
  C   C51       1.0  0.58367  0.61970  0.39847  1.0000
  C   C52       1.0  0.41871  0.62190  0.07531  1.0000
  C   C53       1.0  0.08228  0.12092  0.41952  1.0000
  C   C54       1.0  0.91578  0.12077  0.09786  1.0000
  C   C55       1.0  0.57933  0.38157  0.41894  1.0000
  C   C56       1.0  0.61076  0.61565  0.29533  1.0000
  C   C57       1.0  0.39186  0.61844  0.18345  1.0000
  C   C58       1.0  0.10938  0.11654  0.31728  1.0000
  C   C59       1.0  0.88893  0.11637  0.20398  1.0000
  C   C60       1.0  0.60664  0.38414  0.31622  1.0000
  C   C61       1.0  0.61593  0.59136  0.18971  1.0000
  C   C62       1.0  0.38660  0.59407  0.29101  1.0000
  C   C63       1.0  0.11443  0.09198  0.21385  1.0000
  C   C64       1.0  0.88430  0.09190  0.31086  1.0000
  C   C65       1.0  0.61322  0.40806  0.20571  1.0000
  C   C66       1.0  0.59514  0.57163  0.18950  1.0000
  C   C67       1.0  0.40705  0.57371  0.28850  1.0000
  C   C68       1.0  0.09355  0.07228  0.21536  1.0000
  C   C69       1.0  0.90534  0.07231  0.30892  1.0000
  C   C70       1.0  0.59350  0.42888  0.20002  1.0000
  C   C71       1.0  0.63231  0.65403  0.39620  1.0000
  C   C72       1.0  0.37015  0.65731  0.08372  1.0000
  C   C73       1.0  0.13164  0.15448  0.41774  1.0000
  C   C74       1.0  0.86587  0.15389  0.10161  1.0000
  C   C75       1.0  0.37038  0.34680  0.09259  1.0000
  C   C76       1.0  0.62552  0.34395  0.42298  1.0000
  C   C77       1.0  0.87081  0.84627  0.10894  1.0000
  C   C78       1.0  0.12953  0.84657  0.41546  1.0000
  C   C79       1.0  0.65471  0.67476  0.37731  1.0000
  C   C80       1.0  0.15424  0.17508  0.39671  1.0000
  C   C81       1.0  0.84298  0.17418  0.12255  1.0000
  C   C82       1.0  0.34855  0.32539  0.11267  1.0000
  C   C83       1.0  0.65003  0.70014  0.47361  1.0000
  C   C84       1.0  0.15037  0.19994  0.49766  1.0000
  C   C85       1.0  0.84604  0.19865  0.01610  1.0000
  C   C86       1.0  0.35443  0.29892  0.02812  1.0000
  C   C87       1.0  0.67011  0.72152  0.44759  1.0000
  C   C88       1.0  0.17067  0.22112  0.47072  1.0000
  C   C89       1.0  0.82526  0.21930  0.04038  1.0000
  C   C90       1.0  0.33503  0.27679  0.06035  1.0000
  C   C91       1.0  0.69591  0.71746  0.32977  1.0000
  C   C92       1.0  0.19588  0.21740  0.34685  1.0000
  C   C93       1.0  0.80037  0.21533  0.16711  1.0000
  C   C94       1.0  0.30874  0.28113  0.17248  1.0000
  C   C95       1.0  0.70117  0.69140  0.23898  1.0000
  C   C96       1.0  0.20040  0.19178  0.25133  1.0000
  C   C97       1.0  0.79673  0.19018  0.26921  1.0000
  C   C98       1.0  0.30221  0.30839  0.24842  1.0000
  C   C99       1.0  0.68064  0.67064  0.26037  1.0000
  C   C100      1.0  0.17965  0.17124  0.27408  1.0000
  C   C101      1.0  0.81796  0.17022  0.24907  1.0000
  C   C102      1.0  0.32202  0.32991  0.22167  1.0000
  C   C103      1.0  0.71758  0.73942  0.29286  1.0000
  C   C104      1.0  0.28456  0.74263  0.19182  1.0000
  C   C105      1.0  0.21769  0.23927  0.30865  1.0000
  C   C106      1.0  0.77822  0.23681  0.20320  1.0000
  C   C107      1.0  0.28759  0.25884  0.21803  1.0000
  C   C108      1.0  0.70816  0.25603  0.29817  1.0000
  C   C109      1.0  0.78718  0.75936  0.21538  1.0000
  C   C110      1.0  0.21414  0.76034  0.28841  1.0000
  C   C111      1.0  0.73992  0.78251  0.18239  1.0000
  C   C112      1.0  0.26151  0.78469  0.30886  1.0000
  C   C113      1.0  0.23992  0.28228  0.19648  1.0000
  C   C114      1.0  0.75599  0.27962  0.31259  1.0000
  C   C115      1.0  0.26562  0.21559  0.33014  1.0000
  C   C116      1.0  0.73015  0.21289  0.18817  1.0000
  C   C117      1.0  0.76496  0.71625  0.32674  1.0000
  C   C118      1.0  0.23726  0.71848  0.16730  1.0000
  C   C119      1.0  0.75940  0.76244  0.22340  1.0000
  C   C120      1.0  0.24210  0.76428  0.27231  1.0000
  C   C121      1.0  0.25962  0.26199  0.23240  1.0000
  C   C122      1.0  0.73624  0.25936  0.27936  1.0000
  C   C123      1.0  0.24563  0.23582  0.29602  1.0000
  C   C124      1.0  0.75024  0.23327  0.21700  1.0000
  C   C125      1.0  0.74533  0.73622  0.28604  1.0000
  C   C126      1.0  0.25669  0.73877  0.20460  1.0000
  C   C127      1.0  0.68854  0.77917  0.20785  1.0000
  C   C128      1.0  0.31332  0.78317  0.26818  1.0000
  C   C129      1.0  0.18822  0.27968  0.23325  1.0000
  C   C130      1.0  0.80757  0.27720  0.27486  1.0000
  C   C131      1.0  0.31704  0.21876  0.29796  1.0000
  C   C132      1.0  0.67848  0.21550  0.22867  1.0000
  C   C133      1.0  0.81622  0.71964  0.30174  1.0000
  C   C134      1.0  0.18545  0.71943  0.21272  1.0000
  C   C135      1.0  0.68149  0.80984  0.27429  1.0000
  C   C136      1.0  0.31848  0.81433  0.20271  1.0000
  C   C137      1.0  0.18269  0.31107  0.29089  1.0000
  C   C138      1.0  0.81310  0.30845  0.21059  1.0000
  C   C139      1.0  0.32645  0.19063  0.20344  1.0000
  C   C140      1.0  0.66913  0.18840  0.33702  1.0000
  C   C141      1.0  0.82541  0.69069  0.21639  1.0000
  C   C142      1.0  0.17885  0.68994  0.29983  1.0000
  C   C143      1.0  0.65101  0.81710  0.29506  1.0000
  C   C144      1.0  0.34870  0.82319  0.17598  1.0000
  C   C145      1.0  0.15212  0.31906  0.32244  1.0000
  C   C146      1.0  0.84407  0.31524  0.15223  1.0000
  C   C147      1.0  0.35522  0.18171  0.21584  1.0000
  C   C148      1.0  0.64091  0.17798  0.32318  1.0000
  C   C149      1.0  0.85405  0.68214  0.23311  1.0000
  C   C150      1.0  0.15019  0.67941  0.29533  1.0000
  C   C151      1.0  0.64448  0.84848  0.34740  1.0000
  C   C152      1.0  0.35345  0.85492  0.12337  1.0000
  C   C153      1.0  0.14694  0.35104  0.36455  1.0000
  C   C154      1.0  0.84952  0.34719  0.10706  1.0000
  C   C155      1.0  0.36457  0.15310  0.12705  1.0000
  C   C156      1.0  0.63136  0.15040  0.42644  1.0000
  C   C157      1.0  0.86350  0.65288  0.15322  1.0000
  C   C158      1.0  0.14354  0.64946  0.37573  1.0000
  C   C159      1.0  0.48063  0.56068  0.71680  1.0000
  C   C160      1.0  0.52203  0.56024  0.76254  1.0000
  C   C161      1.0  0.97971  0.06118  0.74064  1.0000
  C   C162      1.0  0.02115  0.06122  0.78537  1.0000
  C   C163      1.0  0.52055  0.43858  0.77478  1.0000
  C   C164      1.0  0.47941  0.43907  0.72528  1.0000
  C   C165      1.0  0.02136  0.93961  0.78721  1.0000
  C   C166      1.0  0.97998  0.93953  0.74127  1.0000
  C   C167      1.0  0.48881  0.59015  0.72457  1.0000
  C   C168      1.0  0.51450  0.58987  0.74981  1.0000
  C   C169      1.0  0.98744  0.09074  0.75088  1.0000
  C   C170      1.0  0.01318  0.09077  0.77523  1.0000
  C   C171      1.0  0.51238  0.40912  0.76636  1.0000
  C   C172      1.0  0.48687  0.40942  0.73839  1.0000
  C   C173      1.0  0.01363  0.91005  0.77765  1.0000
  C   C174      1.0  0.98793  0.90999  0.75239  1.0000
  C   C175      1.0  0.44949  0.52389  0.66698  1.0000
  C   C176      1.0  0.55256  0.52279  0.81603  1.0000
  C   C177      1.0  0.94909  0.02406  0.68800  1.0000
  C   C178      1.0  0.05215  0.02409  0.83639  1.0000
  C   C179      1.0  0.55196  0.47542  0.82076  1.0000
  C   C180      1.0  0.44912  0.47655  0.66954  1.0000
  C   C181      1.0  0.05219  0.97676  0.83708  1.0000
  C   C182      1.0  0.94918  0.97671  0.68855  1.0000
  C   C183      1.0  0.42562  0.51509  0.61439  1.0000
  C   C184      1.0  0.57651  0.51350  0.86699  1.0000
  C   C185      1.0  0.92534  0.01508  0.63471  1.0000
  C   C186      1.0  0.07623  0.01500  0.88670  1.0000
  C   C187      1.0  0.57615  0.48424  0.86972  1.0000
  C   C188      1.0  0.42540  0.48583  0.61598  1.0000
  C   C189      1.0  0.07627  0.98574  0.88686  1.0000
  C   C190      1.0  0.92540  0.98582  0.63512  1.0000
  C   C191      1.0  0.45560  0.55269  0.68656  1.0000
  C   C192      1.0  0.54697  0.55172  0.79279  1.0000
  C   C193      1.0  0.95486  0.05290  0.70916  1.0000
  C   C194      1.0  0.04622  0.05296  0.81463  1.0000
  C   C195      1.0  0.54569  0.44656  0.80349  1.0000
  C   C196      1.0  0.45464  0.44760  0.69264  1.0000
  C   C197      1.0  0.04637  0.94792  0.81638  1.0000
  C   C198      1.0  0.95499  0.94778  0.71051  1.0000
  C   C199      1.0  0.56860  0.57341  0.79493  1.0000
  C   C200      1.0  0.43439  0.57480  0.68105  1.0000
  C   C201      1.0  0.06758  0.07486  0.81803  1.0000
  C   C202      1.0  0.56724  0.42461  0.80528  1.0000
  C   C203      1.0  0.06824  0.92629  0.81658  1.0000
  C   C204      1.0  0.56306  0.59807  0.89736  1.0000
  C   C205      1.0  0.44040  0.59941  0.57578  1.0000
  C   C206      1.0  0.06170  0.09914  0.92330  1.0000
  C   C207      1.0  0.56221  0.39966  0.90813  1.0000
  C   C208      1.0  0.06358  0.90151  0.92076  1.0000
  C   C209      1.0  0.58337  0.61825  0.89855  1.0000
  C   C210      1.0  0.42051  0.62013  0.57342  1.0000
  C   C211      1.0  0.08172  0.11949  0.92702  1.0000
  C   C212      1.0  0.58278  0.37938  0.90534  1.0000
  C   C213      1.0  0.08437  0.88151  0.91706  1.0000
  C   C214      1.0  0.61056  0.61455  0.79626  1.0000
  C   C215      1.0  0.39331  0.61699  0.67699  1.0000
  C   C216      1.0  0.10895  0.11631  0.82447  1.0000
  C   C217      1.0  0.60967  0.38342  0.79899  1.0000
  C   C218      1.0  0.11105  0.88564  0.80810  1.0000
  C   C219      1.0  0.61616  0.59021  0.69118  1.0000
  C   C220      1.0  0.38722  0.59260  0.78407  1.0000
  C   C221      1.0  0.11490  0.09236  0.71636  1.0000
  C   C222      1.0  0.61472  0.40806  0.69358  1.0000
  C   C223      1.0  0.11577  0.91023  0.70239  1.0000
  C   C224      1.0  0.59569  0.57006  0.69106  1.0000
  C   C225      1.0  0.40726  0.57192  0.78542  1.0000
  C   C226      1.0  0.09469  0.07205  0.71354  1.0000
  C   C227      1.0  0.59404  0.42817  0.69707  1.0000
  C   C228      1.0  0.09487  0.93012  0.70696  1.0000
  C   C229      1.0  0.63124  0.65328  0.89980  1.0000
  C   C230      1.0  0.37331  0.65677  0.57381  1.0000
  C   C231      1.0  0.12884  0.15536  0.93019  1.0000
  C   C232      1.0  0.87306  0.15556  0.57407  1.0000
  C   C233      1.0  0.36737  0.34758  0.60322  1.0000
  C   C234      1.0  0.63246  0.34551  0.89999  1.0000
  C   C235      1.0  0.86909  0.84664  0.61524  1.0000
  C   C236      1.0  0.13359  0.84713  0.90422  1.0000
  C   C237      1.0  0.34500  0.32666  0.62780  1.0000
  C   C238      1.0  0.65507  0.32479  0.87614  1.0000
  C   C239      1.0  0.34904  0.30147  0.52978  1.0000
  C   C240      1.0  0.65185  0.29993  0.97953  1.0000
  C   C241      1.0  0.32891  0.28009  0.55972  1.0000
  C   C242      1.0  0.67236  0.27895  0.95096  1.0000
  C   C243      1.0  0.30369  0.28405  0.68304  1.0000
  C   C244      1.0  0.69714  0.28294  0.82353  1.0000
  C   C245      1.0  0.29903  0.30991  0.77607  1.0000
  C   C246      1.0  0.70098  0.30847  0.72455  1.0000
  C   C247      1.0  0.31966  0.33061  0.75085  1.0000
  C   C248      1.0  0.67998  0.32877  0.74872  1.0000
  C   C249      1.0  0.71457  0.74081  0.79235  1.0000
  C   C250      1.0  0.28994  0.74428  0.69045  1.0000
  C   C251      1.0  0.21203  0.24266  0.81601  1.0000
  C   C252      1.0  0.78916  0.24205  0.69158  1.0000
  C   C253      1.0  0.28194  0.26218  0.72323  1.0000
  C   C254      1.0  0.71910  0.26129  0.78586  1.0000
  C   C255      1.0  0.78422  0.76052  0.71652  1.0000
  C   C256      1.0  0.21971  0.76242  0.78308  1.0000
  C   C257      1.0  0.73718  0.78385  0.68130  1.0000
  C   C258      1.0  0.26697  0.78648  0.80819  1.0000
  C   C259      1.0  0.23411  0.28551  0.69825  1.0000
  C   C260      1.0  0.76711  0.28512  0.80206  1.0000
  C   C261      1.0  0.25972  0.21949  0.84024  1.0000
  C   C262      1.0  0.74128  0.21843  0.67706  1.0000
  C   C263      1.0  0.76163  0.71755  0.82688  1.0000
  C   C264      1.0  0.24268  0.72029  0.66647  1.0000
  C   C265      1.0  0.75652  0.76374  0.72283  1.0000
  C   C266      1.0  0.24757  0.76624  0.77027  1.0000
  C   C267      1.0  0.25400  0.26555  0.73563  1.0000
  C   C268      1.0  0.74709  0.26485  0.77123  1.0000
  C   C269      1.0  0.23998  0.23952  0.80234  1.0000
  C   C270      1.0  0.76110  0.23876  0.70886  1.0000
  C   C271      1.0  0.74229  0.73762  0.78504  1.0000
  C   C272      1.0  0.26207  0.74062  0.70374  1.0000
  C   C273      1.0  0.68562  0.78057  0.70703  1.0000
  C   C274      1.0  0.31883  0.78448  0.76870  1.0000
  C   C275      1.0  0.18256  0.28249  0.73447  1.0000
  C   C276      1.0  0.81872  0.28267  0.76214  1.0000
  C   C277      1.0  0.31130  0.22222  0.80359  1.0000
  C   C278      1.0  0.68954  0.22083  0.71716  1.0000
  C   C279      1.0  0.81305  0.72056  0.80084  1.0000
  C   C280      1.0  0.19097  0.72204  0.70620  1.0000
  C   C281      1.0  0.67668  0.80962  0.79167  1.0000
  C   C282      1.0  0.32671  0.81368  0.68037  1.0000
  C   C283      1.0  0.17351  0.31094  0.82630  1.0000
  C   C284      1.0  0.82817  0.30945  0.65080  1.0000
  C   C285      1.0  0.31710  0.19098  0.74394  1.0000
  C   C286      1.0  0.68408  0.18951  0.78025  1.0000
  C   C287      1.0  0.81929  0.68944  0.74036  1.0000
  C   C288      1.0  0.18554  0.69097  0.77243  1.0000
  C   C289      1.0  0.64745  0.81772  0.78397  1.0000
  C   C290      1.0  0.35553  0.82323  0.68800  1.0000
  C   C291      1.0  0.14462  0.31969  0.81518  1.0000
  C   C292      1.0  0.85664  0.31988  0.65996  1.0000
  C   C293      1.0  0.34784  0.18341  0.70572  1.0000
  C   C294      1.0  0.65312  0.18257  0.83180  1.0000
  C   C295      1.0  0.84975  0.68178  0.71708  1.0000
  C   C296      1.0  0.15521  0.68253  0.79990  1.0000
  C   C297      1.0  0.63857  0.84728  0.86126  1.0000
  C   C298      1.0  0.36325  0.85300  0.60713  1.0000
  C   C299      1.0  0.13506  0.34834  0.90285  1.0000
  C   C300      1.0  0.86585  0.34714  0.55284  1.0000
  C   C301      1.0  0.35310  0.15159  0.66007  1.0000
  C   C302      1.0  0.64747  0.15050  0.87188  1.0000
  C   C303      1.0  0.85565  0.65003  0.67169  1.0000
  C   C304      1.0  0.15012  0.65079  0.85106  1.0000
  N   N1        1.0  0.63311  0.63435  0.28358  1.0000
  N   N2        1.0  0.36983  0.63774  0.19827  1.0000
  N   N3        1.0  0.13179  0.13521  0.30380  1.0000
  N   N4        1.0  0.86637  0.13491  0.21806  1.0000
  N   N5        1.0  0.36858  0.36721  0.20216  1.0000
  N   N6        1.0  0.62805  0.36446  0.31113  1.0000
  N   N7        1.0  0.86918  0.86625  0.22086  1.0000
  N   N8        1.0  0.13093  0.86724  0.30572  1.0000
  N   N9        1.0  0.71372  0.76751  0.24086  1.0000
  N   N10       1.0  0.28802  0.77064  0.24332  1.0000
  N   N11       1.0  0.21370  0.26757  0.25992  1.0000
  N   N12       1.0  0.78214  0.26501  0.24979  1.0000
  N   N13       1.0  0.29181  0.23075  0.26831  1.0000
  N   N14       1.0  0.70393  0.22798  0.25065  1.0000
  N   N15       1.0  0.79118  0.73134  0.26755  1.0000
  N   N16       1.0  0.21068  0.73246  0.23474  1.0000
  N   N17       1.0  0.50083  0.54419  0.23517  1.0000
  N   N18       1.0  0.99944  0.04461  0.25932  1.0000
  N   N19       1.0  0.49980  0.45926  0.24196  1.0000
  N   N20       1.0  0.99956  0.95959  0.26176  1.0000
  N   N21       1.0  0.46415  0.50206  0.19012  1.0000
  N   N22       1.0  0.53631  0.50137  0.28893  1.0000
  N   N23       1.0  0.96346  0.00203  0.21055  1.0000
  N   N24       1.0  0.03530  0.00208  0.31299  1.0000
  N   N25       1.0  0.63260  0.63359  0.78631  1.0000
  N   N26       1.0  0.37163  0.63654  0.68643  1.0000
  N   N27       1.0  0.13077  0.13551  0.81718  1.0000
  N   N28       1.0  0.87075  0.13517  0.68640  1.0000
  N   N29       1.0  0.36747  0.36684  0.71675  1.0000
  N   N30       1.0  0.63187  0.36435  0.78307  1.0000
  N   N31       1.0  0.86855  0.86616  0.72837  1.0000
  N   N32       1.0  0.13336  0.86665  0.79040  1.0000
  N   N33       1.0  0.71077  0.76886  0.73953  1.0000
  N   N34       1.0  0.29353  0.77218  0.74334  1.0000
  N   N35       1.0  0.20789  0.27056  0.76278  1.0000
  N   N36       1.0  0.79329  0.27001  0.74090  1.0000
  N   N37       1.0  0.28591  0.23414  0.77520  1.0000
  N   N38       1.0  0.71510  0.23304  0.74036  1.0000
  N   N39       1.0  0.78794  0.73239  0.76827  1.0000
  N   N40       1.0  0.21624  0.73444  0.73145  1.0000
  N   N41       1.0  0.50112  0.54215  0.74133  1.0000
  N   N42       1.0  0.00048  0.04289  0.76330  1.0000
  N   N43       1.0  0.50017  0.45716  0.74890  1.0000
  N   N44       1.0  0.00061  0.95791  0.76396  1.0000
  N   N45       1.0  0.46471  0.50007  0.69378  1.0000
  N   N46       1.0  0.53673  0.49928  0.79459  1.0000
  N   N47       1.0  0.96454  0.00037  0.71377  1.0000
  N   N48       1.0  0.03663  0.00045  0.81318  1.0000
  O   O1        1.0  0.74219  0.80620  0.11041  1.0000
  O   O2        1.0  0.25905  0.80803  0.38228  1.0000
  O   O3        1.0  0.24215  0.30596  0.12472  1.0000
  O   O4        1.0  0.75391  0.30330  0.38202  1.0000
  O   O5        1.0  0.26400  0.19177  0.39963  1.0000
  O   O6        1.0  0.73160  0.18892  0.12329  1.0000
  O   O7        1.0  0.76299  0.69267  0.39950  1.0000
  O   O8        1.0  0.23956  0.69539  0.09157  1.0000
  O   O9        1.0  0.73963  0.80749  0.60904  1.0000
  O   O10       1.0  0.26459  0.80969  0.88262  1.0000
  O   O11       1.0  0.23578  0.30899  0.62488  1.0000
  O   O12       1.0  0.76569  0.30904  0.86755  1.0000
  O   O13       1.0  0.25767  0.19605  0.91470  1.0000
  O   O14       1.0  0.74335  0.19464  0.60886  1.0000
  O   O15       1.0  0.75918  0.69398  0.90001  1.0000
  O   O16       1.0  0.24504  0.69700  0.59255  1.0000
  C   C305      1.0  0.89920  0.07480  0.82052  1.0000
  C   C306      1.0  0.92649  0.07267  0.72175  1.0000
  C  Sn1       1.0  0.93782  0.09416  0.60271  1.0000
  C  Sn2       1.0  0.92148  0.11822  0.58249  1.0000
  C   C307      1.0  0.89420  0.12016  0.68201  1.0000
  C   C308      1.0  0.88307  0.09852  0.80071  1.0000
  H   H257      1.0  0.89059  0.05807  0.91243  1.0000
  O  Te1       1.0  0.96512  0.09169  0.50502  1.0000
  O  Te2       1.0  0.93229  0.14001  0.46451  1.0000
  H   H258      1.0  0.86194  0.10019  0.87725  1.0000
  Mg  Mg1       1.0  0.97055  0.12693  0.36106  1.0000
  C   C309      1.0  0.07471  0.88541  0.44167  1.0000
  C   C310      1.0  0.10167  0.88388  0.33726  1.0000
  C  Sn3       1.0  0.11226  0.90613  0.22194  1.0000
  C  Sn4       1.0  0.09550  0.93034  0.21126  1.0000
  C   C311      1.0  0.06856  0.93168  0.31636  1.0000
  C   C312      1.0  0.05817  0.90929  0.43127  1.0000
  H   H259      1.0  0.06667  0.86810  0.53065  1.0000
  O  Te3       1.0  0.13924  0.90424  0.11853  1.0000
  O  Te4       1.0  0.10558  0.95288  0.09717  1.0000
  H   H260      1.0  0.03730  0.91049  0.51217  1.0000
  Mg  Mg2       1.0  0.10068  0.93887  0.98309  1.0000
  C   C313      1.0  0.80308  0.81515  0.79071  1.0000
  C   C314      1.0  0.80284  0.79017  0.69673  1.0000
  C  Sn5       1.0  0.82625  0.78217  0.56966  1.0000
  C  Sn6       1.0  0.85032  0.79955  0.53638  1.0000
  C   C315      1.0  0.85036  0.82449  0.63119  1.0000
  C   C316      1.0  0.82682  0.83229  0.75802  1.0000
  H   H261      1.0  0.78487  0.82118  0.88890  1.0000
  O  Te5       1.0  0.82565  0.75716  0.47692  1.0000
  O  Te6       1.0  0.87401  0.79206  0.41016  1.0000
  H   H262      1.0  0.82702  0.85162  0.83083  1.0000
  Mg  Mg3       1.0  0.86307  0.75597  0.31795  1.0000
  C   C317      1.0  0.92495  0.88383  0.58915  1.0000
  C   C318      1.0  0.89807  0.88244  0.69506  1.0000
  C  Sn7       1.0  0.88778  0.90472  0.80846  1.0000
  C  Sn8       1.0  0.90476  0.92880  0.81564  1.0000
  C   C319      1.0  0.93161  0.92999  0.70906  1.0000
  C   C320      1.0  0.94170  0.90758  0.59610  1.0000
  H   H263      1.0  0.93275  0.86650  0.50168  1.0000
  O  Te7       1.0  0.86089  0.90298  0.91342  1.0000
  O  Te8       1.0  0.89500  0.95136  0.92775  1.0000
  H   H264      1.0  0.96251  0.90866  0.51404  1.0000
  Mg  Mg4       1.0  0.89990  0.94065  0.04508  1.0000
  C   C321      1.0  0.16593  0.78242  0.97526  1.0000
  C   C322      1.0  0.19076  0.78129  0.84759  1.0000
  C  Sn9       1.0  0.19904  0.80459  0.73610  1.0000
  C  Sn10      1.0  0.18210  0.82946  0.75308  1.0000
  C   C323      1.0  0.15731  0.83039  0.88130  1.0000
  C   C324      1.0  0.14922  0.80695  0.99214  1.0000
  H   H265      1.0  0.20265  0.76582  0.06108  1.0000
  O  Te9       1.0  0.22390  0.80310  0.60922  1.0000
  O  Te10      1.0  0.18989  0.85307  0.64342  1.0000
  H   H266      1.0  0.17298  0.80937  0.09105  1.0000
  Mg  Mg5       1.0  0.22561  0.84076  0.49065  1.0000
  C   C325      1.0  0.18428  0.17467  0.78147  1.0000
  C   C326      1.0  0.15778  0.17410  0.89263  1.0000
  C  Sn11      1.0  0.14734  0.19829  0.98934  1.0000
  C  Sn12      1.0  0.16377  0.22348  0.97418  1.0000
  C   C327      1.0  0.19024  0.22385  0.86252  1.0000
  C   C328      1.0  0.20049  0.19952  0.76639  1.0000
  H   H267      1.0  0.19221  0.15586  0.70701  1.0000
  O  Te11      1.0  0.16380  0.19888  0.09983  1.0000
  O  Te12      1.0  0.19681  0.24950  0.06928  1.0000
  H   H268      1.0  0.22100  0.19997  0.68025  1.0000
  Mg  Mg6       1.0  0.15941  0.23768  0.20248  1.0000
  C   C329      1.0  0.15952  0.77976  0.47590  1.0000
  C   C330      1.0  0.18531  0.77934  0.35685  1.0000
  C  Sn13      1.0  0.19514  0.80383  0.25874  1.0000
  C  Sn14      1.0  0.17881  0.82919  0.28055  1.0000
  C   C331      1.0  0.15305  0.82940  0.40008  1.0000
  C   C332      1.0  0.14340  0.80476  0.49754  1.0000
  H   H269      1.0  0.15206  0.76071  0.55138  1.0000
  O  Te13      1.0  0.22094  0.80304  0.14033  1.0000
  O  Te14      1.0  0.18814  0.85397  0.18423  1.0000
  H   H270      1.0  0.12345  0.80510  0.58978  1.0000
  Mg  Mg7       1.0  0.22468  0.84226  0.03911  1.0000
  C   C333      1.0  0.42469  0.38594  0.06710  1.0000
  C   C334      1.0  0.39775  0.38393  0.17157  1.0000
  C  Sn15      1.0  0.38701  0.40568  0.28778  1.0000
  C  Sn16      1.0  0.40361  0.42988  0.29930  1.0000
  C   C335      1.0  0.43053  0.43170  0.19414  1.0000
  C   C336      1.0  0.44106  0.40980  0.07834  1.0000
  H   H271      1.0  0.38987  0.36747  0.97743  1.0000
  O  Te15      1.0  0.36006  0.40333  0.39123  1.0000
  O  Te16      1.0  0.39339  0.45193  0.41429  1.0000
  H   H272      1.0  0.41894  0.40984  0.99740  1.0000
  Mg  Mg8       1.0  0.35541  0.43893  0.52805  1.0000
  C   C337      1.0  0.68648  0.67325  0.74564  1.0000
  C   C338      1.0  0.66019  0.67220  0.85913  1.0000
  C  Sn17      1.0  0.64992  0.69588  0.96102  1.0000
  C  Sn18      1.0  0.66632  0.72106  0.94876  1.0000
  C   C339      1.0  0.69258  0.72190  0.83474  1.0000
  C   C340      1.0  0.70266  0.69807  0.73342  1.0000
  H   H273      1.0  0.69428  0.65482  0.66717  1.0000
  O  Te17      1.0  0.66659  0.69600  0.07378  1.0000
  O  Te18      1.0  0.69953  0.74657  0.04906  1.0000
  H   H274      1.0  0.72301  0.69890  0.64548  1.0000
  Mg  Mg9       1.0  0.66238  0.73423  0.18361  1.0000
  C   C341      1.0  0.31541  0.67690  0.25202  1.0000
  C   C342      1.0  0.34105  0.67595  0.13167  1.0000
  C  Sn19      1.0  0.34994  0.69917  0.02046  1.0000
  C  Sn20      1.0  0.33281  0.72377  0.03026  1.0000
  C   C343      1.0  0.30720  0.72451  0.15120  1.0000
  C   C344      1.0  0.29850  0.70115  0.26182  1.0000
  H   H275      1.0  0.30868  0.65883  0.33768  1.0000
  O  Te19      1.0  0.33264  0.69633  0.90094  1.0000
  O  Te20      1.0  0.29822  0.74575  0.92071  1.0000
  H   H276      1.0  0.27866  0.70190  0.35506  1.0000
  Mg  Mg10      1.0  0.33495  0.73377  0.77944  1.0000
  C   C345      1.0  0.39837  0.42836  0.81176  1.0000
  C   C346      1.0  0.42638  0.42697  0.72582  1.0000
  C  Sn21      1.0  0.43642  0.40430  0.61495  1.0000
  C  Sn22      1.0  0.41803  0.38266  0.58986  1.0000
  C   C347      1.0  0.39003  0.38426  0.67634  1.0000
  C   C348      1.0  0.38021  0.40704  0.78704  1.0000
  H   H277      1.0  0.39076  0.44599  0.89734  1.0000
  O  Te21      1.0  0.46447  0.40323  0.53015  1.0000
  O  Te22      1.0  0.42751  0.35977  0.47973  1.0000
  H   H278      1.0  0.35851  0.40812  0.85348  1.0000
  Mg  Mg11      1.0  0.46752  0.36775  0.39320  1.0000
  C   C349      1.0  0.80587  0.18461  0.72310  1.0000
  C   C350      1.0  0.80812  0.21314  0.66502  1.0000
  C  Sn23      1.0  0.83275  0.22309  0.55520  1.0000
  C  Sn24      1.0  0.85550  0.20407  0.50272  1.0000
  C   C351      1.0  0.85303  0.17555  0.56143  1.0000
  C   C352      1.0  0.82830  0.16583  0.67134  1.0000
  H   H279      1.0  0.78673  0.17707  0.80806  1.0000
  O  Te23      1.0  0.83465  0.25167  0.49844  1.0000
  O  Te24      1.0  0.88035  0.21345  0.39297  1.0000
  H   H280      1.0  0.82655  0.14373  0.71620  1.0000
  Mg  Mg12      1.0  0.87284  0.25432  0.35026  1.0000
  C   C353      1.0  0.64267  0.28767  0.49204  1.0000
  C   C354      1.0  0.64566  0.31658  0.44118  1.0000
  C  Sn25      1.0  0.67043  0.32636  0.33215  1.0000
  C  Sn26      1.0  0.69256  0.30680  0.27311  1.0000
  C   C355      1.0  0.68935  0.27792  0.32464  1.0000
  C   C356      1.0  0.66448  0.26836  0.43382  1.0000
  H   H281      1.0  0.62342  0.28027  0.57644  1.0000
  O  Te25      1.0  0.67308  0.35531  0.28263  1.0000
  O  Te26      1.0  0.71753  0.31601  0.16400  1.0000
  H   H282      1.0  0.66216  0.24598  0.47309  1.0000
  Mg  Mg13      1.0  0.71114  0.35754  0.13239  1.0000
  C   C357      1.0  0.80453  0.81527  0.27298  1.0000
  C   C358      1.0  0.80532  0.78920  0.18744  1.0000
  C  Sn27      1.0  0.82954  0.78046  0.06957  1.0000
  C  Sn28      1.0  0.85337  0.79819  0.03703  1.0000
  C   C359      1.0  0.85237  0.82422  0.12336  1.0000
  C   C360      1.0  0.82803  0.83276  0.24101  1.0000
  H   H283      1.0  0.78571  0.82187  0.36408  1.0000
  O  Te27      1.0  0.78700  0.75282  0.98518  1.0000
  O  Te28      1.0  0.83487  0.78843  0.91991  1.0000
  H   H284      1.0  0.82743  0.85294  0.30730  1.0000
  Mg  Mg14      1.0  0.82521  0.75095  0.83696  1.0000
  C   C361      1.0  0.89803  0.92809  0.32969  1.0000
  C   C362      1.0  0.92606  0.92805  0.24332  1.0000
  C  Sn29      1.0  0.93698  0.90613  0.12868  1.0000
  C  Sn30      1.0  0.91945  0.88388  0.10022  1.0000
  C   C363      1.0  0.89143  0.88413  0.18716  1.0000
  C   C364      1.0  0.88073  0.90616  0.30164  1.0000
  H   H285      1.0  0.88974  0.94514  0.41819  1.0000
  O  Te29      1.0  0.96503  0.90641  0.04351  1.0000
  O  Te30      1.0  0.88685  0.86019  0.98629  1.0000
  H   H286      1.0  0.85902  0.90619  0.36841  1.0000
  Mg  Mg15      1.0  0.92649  0.86998  0.90076  1.0000
  C   C365      1.0  0.34476  0.72426  0.51252  1.0000
  C   C366      1.0  0.31746  0.72373  0.61255  1.0000
  C  Sn31      1.0  0.30716  0.69945  0.71148  1.0000
  C  Sn32      1.0  0.32457  0.67530  0.71000  1.0000
  C   C367      1.0  0.35186  0.67606  0.60958  1.0000
  C   C368      1.0  0.36195  0.70045  0.51104  1.0000
  H   H287      1.0  0.35258  0.74314  0.43634  1.0000
  O  Te31      1.0  0.27983  0.69927  0.81064  1.0000
  O  Te32      1.0  0.31481  0.65077  0.80771  1.0000
  H   H288      1.0  0.38310  0.70087  0.43369  1.0000
  Mg  Mg16      1.0  0.27605  0.66084  0.92203  1.0000
