data_image0
_chemical_formula_structural       Ni4H192C208N48O16SnCSn2CSnTe4Mg2SnCSn2CSnTe4Mg2SnCSn2CSnTe4Mg2SnCSn2CSnTe4Mg2SnCSn2CSnTe4Mg2SnCSn2CSnTe4Mg2SnCSn2CSnTe4Mg2SnCSn2CSnTe4Mg2SnCSn2CSnTe4Mg2SnCSn2CSnTe4Mg2SnCSn2CSnTe4Mg2SnCSn2CSnTe4Mg2SnCSn2CSnTe4Mg2SnCSn2CSnTe4Mg2SnCSn2CSnTe4Mg2SnCSn2CSnTe4Mg2SnCSn2CSnTe4Mg2SnCSn2CSnTe4Mg2SnCSn2CSnTe4Mg2SnCSn2CSnTe4Mg2SnCSn2CSnTe4Mg2SnCSn2CSnTe4Mg2SnCSn2CSnTe4Mg2SnCSn2CSnTe4Mg2SnCSn2CSnTe4Mg2SnCSn2CSnTe4Mg2SnCSn2CSnTe4Mg2SnCSn2CSnTe4Mg2SnCSn2CSnTe4Mg2SnCSn2CSnTe4Mg2SnCSn2CSnTe4Mg2SnCSn2CSnTe4Mg2
_chemical_formula_sum              "Ni4 H192 C272 N48 O16 Sn128 Te128 Mg64"
_cell_length_a       50.2385
_cell_length_b       46.4356
_cell_length_c       8.14434
_cell_angle_alpha    89.4663
_cell_angle_beta     74.6273
_cell_angle_gamma    89.876

_symmetry_space_group_name_H-M    'P1'
_space_group_IT_number       1

loop_
  _space_group_symop_operation_xyz
  'x, y, z'

loop_
  _atom_site_type_symbol
  _atom_site_label
  _atom_site_symmetry_multiplicity
  _atom_site_fract_x
  _atom_site_fract_y
  _atom_site_fract_z
  _atom_site_occupancy
  Ni  Ni1       1.0  0.50041  0.50167  0.23796  1.0000
  Ni  Ni2       1.0  0.99938  0.00210  0.26153  1.0000
  Ni  Ni3       1.0  0.50064  0.49973  0.74542  1.0000
  Ni  Ni4       1.0  0.00060  0.00046  0.76341  1.0000
  H   H1        1.0  0.47601  0.61065  0.20567  1.0000
  H   H2        1.0  0.52654  0.61017  0.26022  1.0000
  H   H3        1.0  0.97441  0.11080  0.22539  1.0000
  H   H4        1.0  0.02473  0.11080  0.28326  1.0000
  H   H5        1.0  0.52460  0.39279  0.27064  1.0000
  H   H6        1.0  0.47356  0.39331  0.22501  1.0000
  H   H7        1.0  0.02539  0.89339  0.28406  1.0000
  H   H8        1.0  0.97436  0.89333  0.23843  1.0000
  H   H9        1.0  0.41140  0.52965  0.57742  1.0000
  H   H10       1.0  0.59123  0.52775  0.89977  1.0000
  H   H11       1.0  0.91101  0.02954  0.59811  1.0000
  H   H12       1.0  0.09077  0.02938  0.92047  1.0000
  H   H13       1.0  0.59056  0.46967  0.90469  1.0000
  H   H14       1.0  0.41094  0.47152  0.58099  1.0000
  H   H15       1.0  0.09089  0.97124  0.92012  1.0000
  H   H16       1.0  0.91114  0.97141  0.59887  1.0000
  H   H17       1.0  0.61478  0.65674  0.50914  1.0000
  H   H18       1.0  0.38704  0.65959  0.96668  1.0000
  H   H19       1.0  0.11464  0.15677  0.53398  1.0000
  H   H20       1.0  0.88237  0.15600  0.98244  1.0000
  H   H21       1.0  0.38842  0.34381  0.98319  1.0000
  H   H22       1.0  0.60706  0.34093  0.52982  1.0000
  H   H23       1.0  0.88872  0.84360  0.99836  1.0000
  H   H24       1.0  0.11167  0.84323  0.52590  1.0000
  H   H25       1.0  0.67173  0.76435  0.26706  1.0000
  H   H26       1.0  0.33045  0.76925  0.20331  1.0000
  H   H27       1.0  0.17128  0.26576  0.30213  1.0000
  H   H28       1.0  0.82449  0.26314  0.20897  1.0000
  H   H29       1.0  0.33318  0.23519  0.25993  1.0000
  H   H30       1.0  0.66242  0.23209  0.25910  1.0000
  H   H31       1.0  0.83253  0.73575  0.25849  1.0000
  H   H32       1.0  0.16850  0.73455  0.26219  1.0000
  H   H33       1.0  0.69092  0.77883  0.06975  1.0000
  H   H34       1.0  0.31215  0.78237  0.40492  1.0000
  H   H35       1.0  0.18927  0.27821  0.09703  1.0000
  H   H36       1.0  0.80642  0.27600  0.41134  1.0000
  H   H37       1.0  0.31343  0.21493  0.43569  1.0000
  H   H38       1.0  0.68191  0.21014  0.09338  1.0000
  H   H39       1.0  0.81250  0.71716  0.44043  1.0000
  H   H40       1.0  0.18765  0.71708  0.07543  1.0000
  H   H41       1.0  0.69489  0.82520  0.18739  1.0000
  H   H42       1.0  0.30476  0.82874  0.29299  1.0000
  H   H43       1.0  0.19557  0.32542  0.19441  1.0000
  H   H44       1.0  0.80262  0.32325  0.31145  1.0000
  H   H45       1.0  0.31124  0.17375  0.25597  1.0000
  H   H46       1.0  0.68483  0.17160  0.29611  1.0000
  H   H47       1.0  0.81004  0.67421  0.27352  1.0000
  H   H48       1.0  0.19483  0.67456  0.23685  1.0000
  H   H49       1.0  0.68649  0.81234  0.39688  1.0000
  H   H50       1.0  0.31249  0.81689  0.08297  1.0000
  H   H51       1.0  0.18947  0.31467  0.40684  1.0000
  H   H52       1.0  0.80352  0.31246  0.10577  1.0000
  H   H53       1.0  0.32660  0.19312  0.06888  1.0000
  H   H54       1.0  0.66818  0.19284  0.47083  1.0000
  H   H55       1.0  0.82572  0.69194  0.08102  1.0000
  H   H56       1.0  0.18003  0.69115  0.43246  1.0000
  H   H57       1.0  0.63795  0.80244  0.38982  1.0000
  H   H58       1.0  0.36205  0.80932  0.07922  1.0000
  H   H59       1.0  0.13955  0.30560  0.42614  1.0000
  H   H60       1.0  0.85389  0.30176  0.04221  1.0000
  H   H61       1.0  0.37015  0.19878  0.16041  1.0000
  H   H62       1.0  0.62556  0.19515  0.36536  1.0000
  H   H63       1.0  0.86910  0.69888  0.17381  1.0000
  H   H64       1.0  0.13449  0.69496  0.36108  1.0000
  H   H65       1.0  0.64551  0.81296  0.17513  1.0000
  H   H66       1.0  0.35509  0.81921  0.29358  1.0000
  H   H67       1.0  0.14496  0.31387  0.20952  1.0000
  H   H68       1.0  0.85406  0.30903  0.25243  1.0000
  H   H69       1.0  0.35527  0.18010  0.35075  1.0000
  H   H70       1.0  0.64184  0.17433  0.18841  1.0000
  H   H71       1.0  0.85386  0.68169  0.36867  1.0000
  H   H72       1.0  0.14886  0.67912  0.16250  1.0000
  H   H73       1.0  0.65256  0.86428  0.79410  1.0000
  H   H74       1.0  0.38401  0.85964  0.61171  1.0000
  H   H75       1.0  0.13421  0.34724  0.03902  1.0000
  H   H76       1.0  0.86679  0.34351  0.41820  1.0000
  H   H77       1.0  0.34544  0.14600  0.54988  1.0000
  H   H78       1.0  0.62527  0.14563  0.90955  1.0000
  H   H79       1.0  0.85022  0.64468  0.55341  1.0000
  H   H80       1.0  0.15590  0.64601  0.96946  1.0000
  H   H81       1.0  0.65661  0.86337  0.25071  1.0000
  H   H82       1.0  0.37518  0.86121  0.10124  1.0000
  H   H83       1.0  0.15862  0.36476  0.25957  1.0000
  H   H84       1.0  0.87168  0.35204  0.06325  1.0000
  H   H85       1.0  0.35053  0.13552  0.18528  1.0000
  H   H86       1.0  0.64597  0.13267  0.38291  1.0000
  H   H87       1.0  0.88420  0.64716  0.16388  1.0000
  H   H88       1.0  0.12293  0.64210  0.37245  1.0000
  H   H89       1.0  0.64963  0.85313  0.46744  1.0000
  H   H90       1.0  0.34105  0.86906  0.22196  1.0000
  H   H91       1.0  0.15355  0.35679  0.47830  1.0000
  H   H92       1.0  0.84061  0.36079  0.21772  1.0000
  H   H93       1.0  0.36474  0.15424  0.99186  1.0000
  H   H94       1.0  0.62980  0.15358  0.56230  1.0000
  H   H95       1.0  0.84932  0.63563  0.21507  1.0000
  H   H96       1.0  0.15857  0.63343  0.30897  1.0000
  H   H97       1.0  0.47656  0.60863  0.70974  1.0000
  H   H98       1.0  0.52723  0.60808  0.76060  1.0000
  H   H99       1.0  0.97485  0.10908  0.73824  1.0000
  H   H100      1.0  0.02568  0.10911  0.78718  1.0000
  H   H101      1.0  0.52469  0.39063  0.78050  1.0000
  H   H102      1.0  0.47422  0.39123  0.72581  1.0000
  H   H103      1.0  0.02629  0.89176  0.79020  1.0000
  H   H104      1.0  0.97546  0.89162  0.74029  1.0000
  H   H105      1.0  0.41021  0.53171  0.08131  1.0000
  H   H106      1.0  0.58997  0.52976  0.40371  1.0000
  H   H107      1.0  0.90953  0.03106  0.09891  1.0000
  H   H108      1.0  0.08842  0.03097  0.43132  1.0000
  H   H109      1.0  0.58940  0.47159  0.40658  1.0000
  H   H110      1.0  0.40934  0.47357  0.08822  1.0000
  H   H111      1.0  0.08881  0.97284  0.42832  1.0000
  H   H112      1.0  0.90936  0.97293  0.10353  1.0000
  H   H113      1.0  0.61348  0.65568  0.01153  1.0000
  H   H114      1.0  0.39115  0.65946  0.46245  1.0000
  H   H115      1.0  0.11071  0.15800  0.03943  1.0000
  H   H116      1.0  0.89168  0.15901  0.46889  1.0000
  H   H117      1.0  0.38396  0.34557  0.48472  1.0000
  H   H118      1.0  0.61635  0.34391  0.02119  1.0000
  H   H119      1.0  0.88627  0.84441  0.49993  1.0000
  H   H120      1.0  0.11712  0.84484  0.02331  1.0000
  H   H121      1.0  0.66930  0.76450  0.75193  1.0000
  H   H122      1.0  0.33533  0.76877  0.72191  1.0000
  H   H123      1.0  0.16635  0.26622  0.77619  1.0000
  H   H124      1.0  0.83470  0.26598  0.73386  1.0000
  H   H125      1.0  0.32822  0.23637  0.73699  1.0000
  H   H126      1.0  0.67266  0.23480  0.78462  1.0000
  H   H127      1.0  0.83004  0.73486  0.73709  1.0000
  H   H128      1.0  0.17395  0.73615  0.77020  1.0000
  H   H129      1.0  0.68899  0.78286  0.56852  1.0000
  H   H130      1.0  0.31619  0.78687  0.90633  1.0000
  H   H131      1.0  0.18581  0.28582  0.59664  1.0000
  H   H132      1.0  0.81522  0.28848  0.89685  1.0000
  H   H133      1.0  0.30985  0.22348  0.94034  1.0000
  H   H134      1.0  0.69038  0.22209  0.58111  1.0000
  H   H135      1.0  0.81103  0.72164  0.93838  1.0000
  H   H136      1.0  0.19226  0.72279  0.56935  1.0000
  H   H137      1.0  0.69160  0.82617  0.72927  1.0000
  H   H138      1.0  0.31113  0.82967  0.74040  1.0000
  H   H139      1.0  0.18871  0.32768  0.77066  1.0000
  H   H140      1.0  0.81268  0.32647  0.69130  1.0000
  H   H141      1.0  0.30479  0.17635  0.84115  1.0000
  H   H142      1.0  0.69514  0.17488  0.68025  1.0000
  H   H143      1.0  0.80592  0.67473  0.83209  1.0000
  H   H144      1.0  0.19903  0.67636  0.68217  1.0000
  H   H145      1.0  0.67753  0.80881  0.92513  1.0000
  H   H146      1.0  0.32602  0.81245  0.54680  1.0000
  H   H147      1.0  0.17373  0.30887  0.96054  1.0000
  H   H148      1.0  0.82878  0.30471  0.51787  1.0000
  H   H149      1.0  0.30974  0.18741  0.63010  1.0000
  H   H150      1.0  0.69299  0.18549  0.88795  1.0000
  H   H151      1.0  0.81367  0.68627  0.62014  1.0000
  H   H152      1.0  0.19164  0.68836  0.89183  1.0000
  H   H153      1.0  0.63280  0.80113  0.85033  1.0000
  H   H154      1.0  0.37090  0.80721  0.62420  1.0000
  H   H155      1.0  0.12983  0.30256  0.87193  1.0000
  H   H156      1.0  0.87189  0.30261  0.61777  1.0000
  H   H157      1.0  0.35970  0.19724  0.60139  1.0000
  H   H158      1.0  0.64272  0.19567  0.94229  1.0000
  H   H159      1.0  0.86276  0.69573  0.61779  1.0000
  H   H160      1.0  0.14211  0.69644  0.89749  1.0000
  H   H161      1.0  0.64634  0.81748  0.65073  1.0000
  H   H162      1.0  0.35649  0.82341  0.82152  1.0000
  H   H163      1.0  0.14439  0.32107  0.68046  1.0000
  H   H164      1.0  0.85625  0.32401  0.79341  1.0000
  H   H165      1.0  0.35569  0.18847  0.81623  1.0000
  H   H166      1.0  0.64380  0.18920  0.72930  1.0000
  H   H167      1.0  0.85578  0.68666  0.83438  1.0000
  H   H168      1.0  0.14880  0.68684  0.68274  1.0000
  H   H169      1.0  0.62256  0.85362  0.36506  1.0000
  H   H170      1.0  0.34735  0.85942  0.00569  1.0000
  H   H171      1.0  0.12502  0.35672  0.38844  1.0000
  H   H172      1.0  0.84003  0.35389  0.00571  1.0000
  H   H173      1.0  0.38542  0.14706  0.13341  1.0000
  H   H174      1.0  0.61105  0.14331  0.41572  1.0000
  H   H175      1.0  0.86411  0.65283  0.01730  1.0000
  H   H176      1.0  0.14423  0.64932  0.50951  1.0000
  H   H177      1.0  0.63890  0.84787  0.99558  1.0000
  H   H178      1.0  0.34865  0.86949  0.67277  1.0000
  H   H179      1.0  0.11443  0.35443  0.89253  1.0000
  H   H180      1.0  0.88635  0.35442  0.55901  1.0000
  H   H181      1.0  0.37515  0.14615  0.62863  1.0000
  H   H182      1.0  0.65704  0.13729  0.76056  1.0000
  H   H183      1.0  0.87751  0.64462  0.65400  1.0000
  H   H184      1.0  0.12837  0.64473  0.87097  1.0000
  H   H185      1.0  0.61760  0.85296  0.85544  1.0000
  H   H186      1.0  0.36280  0.85327  0.47288  1.0000
  H   H187      1.0  0.14929  0.36589  0.84663  1.0000
  H   H188      1.0  0.85132  0.36493  0.59646  1.0000
  H   H189      1.0  0.34230  0.13757  0.76617  1.0000
  H   H190      1.0  0.65612  0.14329  0.97591  1.0000
  H   H191      1.0  0.84340  0.63585  0.77217  1.0000
  H   H192      1.0  0.16259  0.63667  0.75260  1.0000
  C   C1        1.0  0.48036  0.56273  0.21013  1.0000
  C   C2        1.0  0.52154  0.56232  0.25903  1.0000
  C   C3        1.0  0.97895  0.06293  0.23244  1.0000
  C   C4        1.0  0.01999  0.06293  0.28371  1.0000
  C   C5        1.0  0.52036  0.44074  0.26507  1.0000
  C   C6        1.0  0.47879  0.44115  0.22249  1.0000
  C   C7        1.0  0.02043  0.94128  0.28308  1.0000
  C   C8        1.0  0.97887  0.94124  0.24018  1.0000
  C   C9        1.0  0.48841  0.59221  0.21953  1.0000
  C   C10       1.0  0.51394  0.59196  0.24719  1.0000
  C   C11       1.0  0.98685  0.09248  0.24070  1.0000
  C   C12       1.0  0.01227  0.09248  0.27008  1.0000
  C   C13       1.0  0.51221  0.41126  0.25743  1.0000
  C   C14       1.0  0.48637  0.41152  0.23467  1.0000
  C   C15       1.0  0.01273  0.91172  0.27242  1.0000
  C   C16       1.0  0.98688  0.91169  0.24974  1.0000
  C   C17       1.0  0.44891  0.52591  0.16397  1.0000
  C   C18       1.0  0.55191  0.52484  0.31364  1.0000
  C   C19       1.0  0.94802  0.02571  0.18442  1.0000
  C   C20       1.0  0.05054  0.02573  0.33967  1.0000
  C   C21       1.0  0.55146  0.47752  0.31577  1.0000
  C   C22       1.0  0.44819  0.47857  0.16997  1.0000
  C   C23       1.0  0.05083  0.97839  0.33772  1.0000
  C   C24       1.0  0.94789  0.97834  0.18832  1.0000
  C   C25       1.0  0.42462  0.51711  0.11604  1.0000
  C   C26       1.0  0.57556  0.51549  0.36780  1.0000
  C   C27       1.0  0.92400  0.01663  0.13435  1.0000
  C   C28       1.0  0.07427  0.01660  0.39372  1.0000
  C   C29       1.0  0.57528  0.48623  0.36916  1.0000
  C   C30       1.0  0.42418  0.48785  0.11969  1.0000
  C   C31       1.0  0.07446  0.98735  0.39223  1.0000
  C   C32       1.0  0.92390  0.98736  0.13687  1.0000
  C   C33       1.0  0.45523  0.55474  0.18127  1.0000
  C   C34       1.0  0.54637  0.55381  0.29097  1.0000
  C   C35       1.0  0.95395  0.05463  0.20284  1.0000
  C   C36       1.0  0.04479  0.05465  0.31702  1.0000
  C   C37       1.0  0.54533  0.44876  0.29568  1.0000
  C   C38       1.0  0.45376  0.44965  0.19356  1.0000
  C   C39       1.0  0.04530  0.94956  0.31425  1.0000
  C   C40       1.0  0.95379  0.94947  0.21078  1.0000
  C   C41       1.0  0.63231  0.65403  0.39620  1.0000
  C   C42       1.0  0.37015  0.65731  0.08372  1.0000
  C   C43       1.0  0.13164  0.15448  0.41774  1.0000
  C   C44       1.0  0.86587  0.15389  0.10161  1.0000
  C   C45       1.0  0.37038  0.34680  0.09259  1.0000
  C   C46       1.0  0.62552  0.34395  0.42298  1.0000
  C   C47       1.0  0.87081  0.84627  0.10894  1.0000
  C   C48       1.0  0.12953  0.84657  0.41546  1.0000
  C   C49       1.0  0.71758  0.73942  0.29286  1.0000
  C   C50       1.0  0.28456  0.74263  0.19182  1.0000
  C   C51       1.0  0.21769  0.23927  0.30865  1.0000
  C   C52       1.0  0.77822  0.23681  0.20320  1.0000
  C   C53       1.0  0.28759  0.25884  0.21803  1.0000
  C   C54       1.0  0.70816  0.25603  0.29817  1.0000
  C   C55       1.0  0.78718  0.75936  0.21538  1.0000
  C   C56       1.0  0.21414  0.76034  0.28841  1.0000
  C   C57       1.0  0.73992  0.78251  0.18239  1.0000
  C   C58       1.0  0.26151  0.78469  0.30886  1.0000
  C   C59       1.0  0.23992  0.28228  0.19648  1.0000
  C   C60       1.0  0.75599  0.27962  0.31259  1.0000
  C   C61       1.0  0.26562  0.21559  0.33014  1.0000
  C   C62       1.0  0.73015  0.21289  0.18817  1.0000
  C   C63       1.0  0.76496  0.71625  0.32674  1.0000
  C   C64       1.0  0.23726  0.71848  0.16730  1.0000
  C   C65       1.0  0.75940  0.76244  0.22340  1.0000
  C   C66       1.0  0.24210  0.76428  0.27231  1.0000
  C   C67       1.0  0.25962  0.26199  0.23240  1.0000
  C   C68       1.0  0.73624  0.25936  0.27936  1.0000
  C   C69       1.0  0.24563  0.23582  0.29602  1.0000
  C   C70       1.0  0.75024  0.23327  0.21700  1.0000
  C   C71       1.0  0.74533  0.73622  0.28604  1.0000
  C   C72       1.0  0.25669  0.73877  0.20460  1.0000
  C   C73       1.0  0.68854  0.77917  0.20785  1.0000
  C   C74       1.0  0.31332  0.78317  0.26818  1.0000
  C   C75       1.0  0.18822  0.27968  0.23325  1.0000
  C   C76       1.0  0.80757  0.27720  0.27486  1.0000
  C   C77       1.0  0.31704  0.21876  0.29796  1.0000
  C   C78       1.0  0.67848  0.21550  0.22867  1.0000
  C   C79       1.0  0.81622  0.71964  0.30174  1.0000
  C   C80       1.0  0.18545  0.71943  0.21272  1.0000
  C   C81       1.0  0.68149  0.80984  0.27429  1.0000
  C   C82       1.0  0.31848  0.81433  0.20271  1.0000
  C   C83       1.0  0.18269  0.31107  0.29089  1.0000
  C   C84       1.0  0.81310  0.30845  0.21059  1.0000
  C   C85       1.0  0.32645  0.19063  0.20344  1.0000
  C   C86       1.0  0.66913  0.18840  0.33702  1.0000
  C   C87       1.0  0.82541  0.69069  0.21639  1.0000
  C   C88       1.0  0.17885  0.68994  0.29983  1.0000
  C   C89       1.0  0.65101  0.81710  0.29506  1.0000
  C   C90       1.0  0.34870  0.82319  0.17598  1.0000
  C   C91       1.0  0.15212  0.31906  0.32244  1.0000
  C   C92       1.0  0.84407  0.31524  0.15223  1.0000
  C   C93       1.0  0.35522  0.18171  0.21584  1.0000
  C   C94       1.0  0.64091  0.17798  0.32318  1.0000
  C   C95       1.0  0.85405  0.68214  0.23311  1.0000
  C   C96       1.0  0.15019  0.67941  0.29533  1.0000
  C   C97       1.0  0.64448  0.84848  0.34740  1.0000
  C   C98       1.0  0.35345  0.85492  0.12337  1.0000
  C   C99       1.0  0.14694  0.35104  0.36455  1.0000
  C   C100      1.0  0.84952  0.34719  0.10706  1.0000
  C   C101      1.0  0.36457  0.15310  0.12705  1.0000
  C   C102      1.0  0.63136  0.15040  0.42644  1.0000
  C   C103      1.0  0.86350  0.65288  0.15322  1.0000
  C   C104      1.0  0.14354  0.64946  0.37573  1.0000
  C   C105      1.0  0.48063  0.56068  0.71680  1.0000
  C   C106      1.0  0.52203  0.56024  0.76254  1.0000
  C   C107      1.0  0.97971  0.06118  0.74064  1.0000
  C   C108      1.0  0.02115  0.06122  0.78537  1.0000
  C   C109      1.0  0.52055  0.43858  0.77478  1.0000
  C   C110      1.0  0.47941  0.43907  0.72528  1.0000
  C   C111      1.0  0.02136  0.93961  0.78721  1.0000
  C   C112      1.0  0.97998  0.93953  0.74127  1.0000
  C   C113      1.0  0.48881  0.59015  0.72457  1.0000
  C   C114      1.0  0.51450  0.58987  0.74981  1.0000
  C   C115      1.0  0.98744  0.09074  0.75088  1.0000
  C   C116      1.0  0.01318  0.09077  0.77523  1.0000
  C   C117      1.0  0.51238  0.40912  0.76636  1.0000
  C   C118      1.0  0.48687  0.40942  0.73839  1.0000
  C   C119      1.0  0.01363  0.91005  0.77765  1.0000
  C   C120      1.0  0.98793  0.90999  0.75239  1.0000
  C   C121      1.0  0.44949  0.52389  0.66698  1.0000
  C   C122      1.0  0.55256  0.52279  0.81603  1.0000
  C   C123      1.0  0.94909  0.02406  0.68800  1.0000
  C   C124      1.0  0.05215  0.02409  0.83639  1.0000
  C   C125      1.0  0.55196  0.47542  0.82076  1.0000
  C   C126      1.0  0.44912  0.47655  0.66954  1.0000
  C   C127      1.0  0.05219  0.97676  0.83708  1.0000
  C   C128      1.0  0.94918  0.97671  0.68855  1.0000
  C   C129      1.0  0.42562  0.51509  0.61439  1.0000
  C   C130      1.0  0.57651  0.51350  0.86699  1.0000
  C   C131      1.0  0.92534  0.01508  0.63471  1.0000
  C   C132      1.0  0.07623  0.01500  0.88670  1.0000
  C   C133      1.0  0.57615  0.48424  0.86972  1.0000
  C   C134      1.0  0.42540  0.48583  0.61598  1.0000
  C   C135      1.0  0.07627  0.98574  0.88686  1.0000
  C   C136      1.0  0.92540  0.98582  0.63512  1.0000
  C   C137      1.0  0.45560  0.55269  0.68656  1.0000
  C   C138      1.0  0.54697  0.55172  0.79279  1.0000
  C   C139      1.0  0.95486  0.05290  0.70916  1.0000
  C   C140      1.0  0.04622  0.05296  0.81463  1.0000
  C   C141      1.0  0.54569  0.44656  0.80349  1.0000
  C   C142      1.0  0.45464  0.44760  0.69264  1.0000
  C   C143      1.0  0.04637  0.94792  0.81638  1.0000
  C   C144      1.0  0.95499  0.94778  0.71051  1.0000
  C   C145      1.0  0.63124  0.65328  0.89980  1.0000
  C   C146      1.0  0.37331  0.65677  0.57381  1.0000
  C   C147      1.0  0.12884  0.15536  0.93019  1.0000
  C   C148      1.0  0.87306  0.15556  0.57407  1.0000
  C   C149      1.0  0.36737  0.34758  0.60322  1.0000
  C   C150      1.0  0.63246  0.34551  0.89999  1.0000
  C   C151      1.0  0.86909  0.84664  0.61524  1.0000
  C   C152      1.0  0.13359  0.84713  0.90422  1.0000
  C   C153      1.0  0.71457  0.74081  0.79235  1.0000
  C   C154      1.0  0.28994  0.74428  0.69045  1.0000
  C   C155      1.0  0.21203  0.24266  0.81601  1.0000
  C   C156      1.0  0.78916  0.24205  0.69158  1.0000
  C   C157      1.0  0.28194  0.26218  0.72323  1.0000
  C   C158      1.0  0.71910  0.26129  0.78586  1.0000
  C   C159      1.0  0.78422  0.76052  0.71652  1.0000
  C   C160      1.0  0.21971  0.76242  0.78308  1.0000
  C   C161      1.0  0.73718  0.78385  0.68130  1.0000
  C   C162      1.0  0.26697  0.78648  0.80819  1.0000
  C   C163      1.0  0.23411  0.28551  0.69825  1.0000
  C   C164      1.0  0.76711  0.28512  0.80206  1.0000
  C   C165      1.0  0.25972  0.21949  0.84024  1.0000
  C   C166      1.0  0.74128  0.21843  0.67706  1.0000
  C   C167      1.0  0.76163  0.71755  0.82688  1.0000
  C   C168      1.0  0.24268  0.72029  0.66647  1.0000
  C   C169      1.0  0.75652  0.76374  0.72283  1.0000
  C   C170      1.0  0.24757  0.76624  0.77027  1.0000
  C   C171      1.0  0.25400  0.26555  0.73563  1.0000
  C   C172      1.0  0.74709  0.26485  0.77123  1.0000
  C   C173      1.0  0.23998  0.23952  0.80234  1.0000
  C   C174      1.0  0.76110  0.23876  0.70886  1.0000
  C   C175      1.0  0.74229  0.73762  0.78504  1.0000
  C   C176      1.0  0.26207  0.74062  0.70374  1.0000
  C   C177      1.0  0.68562  0.78057  0.70703  1.0000
  C   C178      1.0  0.31883  0.78448  0.76870  1.0000
  C   C179      1.0  0.18256  0.28249  0.73447  1.0000
  C   C180      1.0  0.81872  0.28267  0.76214  1.0000
  C   C181      1.0  0.31130  0.22222  0.80359  1.0000
  C   C182      1.0  0.68954  0.22083  0.71716  1.0000
  C   C183      1.0  0.81305  0.72056  0.80084  1.0000
  C   C184      1.0  0.19097  0.72204  0.70620  1.0000
  C   C185      1.0  0.67668  0.80962  0.79167  1.0000
  C   C186      1.0  0.32671  0.81368  0.68037  1.0000
  C   C187      1.0  0.17351  0.31094  0.82630  1.0000
  C   C188      1.0  0.82817  0.30945  0.65080  1.0000
  C   C189      1.0  0.31710  0.19098  0.74394  1.0000
  C   C190      1.0  0.68408  0.18951  0.78025  1.0000
  C   C191      1.0  0.81929  0.68944  0.74036  1.0000
  C   C192      1.0  0.18554  0.69097  0.77243  1.0000
  C   C193      1.0  0.64745  0.81772  0.78397  1.0000
  C   C194      1.0  0.35553  0.82323  0.68800  1.0000
  C   C195      1.0  0.14462  0.31969  0.81518  1.0000
  C   C196      1.0  0.85664  0.31988  0.65996  1.0000
  C   C197      1.0  0.34784  0.18341  0.70572  1.0000
  C   C198      1.0  0.65312  0.18257  0.83180  1.0000
  C   C199      1.0  0.84975  0.68178  0.71708  1.0000
  C   C200      1.0  0.15521  0.68253  0.79990  1.0000
  C   C201      1.0  0.63857  0.84728  0.86126  1.0000
  C   C202      1.0  0.36325  0.85300  0.60713  1.0000
  C   C203      1.0  0.13506  0.34834  0.90285  1.0000
  C   C204      1.0  0.86585  0.34714  0.55284  1.0000
  C   C205      1.0  0.35310  0.15159  0.66007  1.0000
  C   C206      1.0  0.64747  0.15050  0.87188  1.0000
  C   C207      1.0  0.85565  0.65003  0.67169  1.0000
  C   C208      1.0  0.15012  0.65079  0.85106  1.0000
  N   N1        1.0  0.63311  0.63435  0.28358  1.0000
  N   N2        1.0  0.36983  0.63774  0.19827  1.0000
  N   N3        1.0  0.13179  0.13521  0.30380  1.0000
  N   N4        1.0  0.86637  0.13491  0.21806  1.0000
  N   N5        1.0  0.36858  0.36721  0.20216  1.0000
  N   N6        1.0  0.62805  0.36446  0.31113  1.0000
  N   N7        1.0  0.86918  0.86625  0.22086  1.0000
  N   N8        1.0  0.13093  0.86724  0.30572  1.0000
  N   N9        1.0  0.71372  0.76751  0.24086  1.0000
  N   N10       1.0  0.28802  0.77064  0.24332  1.0000
  N   N11       1.0  0.21370  0.26757  0.25992  1.0000
  N   N12       1.0  0.78214  0.26501  0.24979  1.0000
  N   N13       1.0  0.29181  0.23075  0.26831  1.0000
  N   N14       1.0  0.70393  0.22798  0.25065  1.0000
  N   N15       1.0  0.79118  0.73134  0.26755  1.0000
  N   N16       1.0  0.21068  0.73246  0.23474  1.0000
  N   N17       1.0  0.50083  0.54419  0.23517  1.0000
  N   N18       1.0  0.99944  0.04461  0.25932  1.0000
  N   N19       1.0  0.49980  0.45926  0.24196  1.0000
  N   N20       1.0  0.99956  0.95959  0.26176  1.0000
  N   N21       1.0  0.46415  0.50206  0.19012  1.0000
  N   N22       1.0  0.53631  0.50137  0.28893  1.0000
  N   N23       1.0  0.96346  0.00203  0.21055  1.0000
  N   N24       1.0  0.03530  0.00208  0.31299  1.0000
  N   N25       1.0  0.63260  0.63359  0.78631  1.0000
  N   N26       1.0  0.37163  0.63654  0.68643  1.0000
  N   N27       1.0  0.13077  0.13551  0.81718  1.0000
  N   N28       1.0  0.87075  0.13517  0.68640  1.0000
  N   N29       1.0  0.36747  0.36684  0.71675  1.0000
  N   N30       1.0  0.63187  0.36435  0.78307  1.0000
  N   N31       1.0  0.86855  0.86616  0.72837  1.0000
  N   N32       1.0  0.13336  0.86665  0.79040  1.0000
  N   N33       1.0  0.71077  0.76886  0.73953  1.0000
  N   N34       1.0  0.29353  0.77218  0.74334  1.0000
  N   N35       1.0  0.20789  0.27056  0.76278  1.0000
  N   N36       1.0  0.79329  0.27001  0.74090  1.0000
  N   N37       1.0  0.28591  0.23414  0.77520  1.0000
  N   N38       1.0  0.71510  0.23304  0.74036  1.0000
  N   N39       1.0  0.78794  0.73239  0.76827  1.0000
  N   N40       1.0  0.21624  0.73444  0.73145  1.0000
  N   N41       1.0  0.50112  0.54215  0.74133  1.0000
  N   N42       1.0  0.00048  0.04289  0.76330  1.0000
  N   N43       1.0  0.50017  0.45716  0.74890  1.0000
  N   N44       1.0  0.00061  0.95791  0.76396  1.0000
  N   N45       1.0  0.46471  0.50007  0.69378  1.0000
  N   N46       1.0  0.53673  0.49928  0.79459  1.0000
  N   N47       1.0  0.96454  0.00037  0.71377  1.0000
  N   N48       1.0  0.03663  0.00045  0.81318  1.0000
  O   O1        1.0  0.74219  0.80620  0.11041  1.0000
  O   O2        1.0  0.25905  0.80803  0.38228  1.0000
  O   O3        1.0  0.24215  0.30596  0.12472  1.0000
  O   O4        1.0  0.75391  0.30330  0.38202  1.0000
  O   O5        1.0  0.26400  0.19177  0.39963  1.0000
  O   O6        1.0  0.73160  0.18892  0.12329  1.0000
  O   O7        1.0  0.76299  0.69267  0.39950  1.0000
  O   O8        1.0  0.23956  0.69539  0.09157  1.0000
  O   O9        1.0  0.73963  0.80749  0.60904  1.0000
  O   O10       1.0  0.26459  0.80969  0.88262  1.0000
  O   O11       1.0  0.23578  0.30899  0.62488  1.0000
  O   O12       1.0  0.76569  0.30904  0.86755  1.0000
  O   O13       1.0  0.25767  0.19605  0.91470  1.0000
  O   O14       1.0  0.74335  0.19464  0.60886  1.0000
  O   O15       1.0  0.75918  0.69398  0.90001  1.0000
  O   O16       1.0  0.24504  0.69700  0.59255  1.0000
  C  Sn1       1.0  0.56400  0.60976  0.36807  1.0000
  C   C209      1.0  0.56610  0.58426  0.27576  1.0000
  C  Sn2       1.0  0.59196  0.57258  0.19771  1.0000
  C  Sn3       1.0  0.61623  0.58669  0.21230  1.0000
  C   C210      1.0  0.61413  0.61218  0.30458  1.0000
  C  Sn4       1.0  0.58827  0.62387  0.38266  1.0000
  O  Te1       1.0  0.53794  0.62104  0.44506  1.0000
  O  Te2       1.0  0.59354  0.54707  0.10605  1.0000
  O  Te3       1.0  0.64231  0.57539  0.13520  1.0000
  O  Te4       1.0  0.58669  0.64936  0.47429  1.0000
  Mg  Mg1       1.0  0.63377  0.54015  0.02408  1.0000
  Mg  Mg2       1.0  0.54647  0.65630  0.55638  1.0000
  C  Sn5       1.0  0.42183  0.61424  0.02966  1.0000
  C   C211      1.0  0.39485  0.61503  0.13443  1.0000
  C  Sn6       1.0  0.38713  0.59744  0.27933  1.0000
  C  Sn7       1.0  0.40678  0.57867  0.32044  1.0000
  C   C212      1.0  0.43373  0.57789  0.21572  1.0000
  C  Sn8       1.0  0.44147  0.59548  0.07077  1.0000
  O  Te5       1.0  0.38612  0.63049  0.88544  1.0000
  O  Te6       1.0  0.36004  0.59860  0.38209  1.0000
  O  Te7       1.0  0.39948  0.56089  0.46479  1.0000
  O  Te8       1.0  0.42557  0.59279  0.96806  1.0000
  Mg  Mg3       1.0  0.36009  0.57023  0.56498  1.0000
  Mg  Mg4       1.0  0.42555  0.62116  0.78520  1.0000
  C  Sn9       1.0  0.10125  0.07088  0.24493  1.0000
  C   C213      1.0  0.07349  0.07198  0.33655  1.0000
  C  Sn10      1.0  0.06200  0.09762  0.41204  1.0000
  C  Sn11      1.0  0.07860  0.12270  0.39551  1.0000
  C   C214      1.0  0.10634  0.12160  0.30391  1.0000
  C  Sn12      1.0  0.11784  0.09596  0.22840  1.0000
  O  Te9       1.0  0.11230  0.04502  0.17052  1.0000
  O  Te10      1.0  0.03420  0.09818  0.50307  1.0000
  O  Te11      1.0  0.06752  0.14857  0.47002  1.0000
  O  Te12      1.0  0.14563  0.09540  0.13740  1.0000
  Mg  Mg5       1.0  0.02860  0.13852  0.58125  1.0000
  Mg  Mg6       1.0  0.15124  0.05507  0.05909  1.0000
  C  Sn13      1.0  0.91923  0.11322  0.05197  1.0000
  C   C215      1.0  0.89213  0.11305  0.15509  1.0000
  C  Sn14      1.0  0.88473  0.09523  0.29912  1.0000
  C  Sn15      1.0  0.90484  0.07721  0.34104  1.0000
  C   C216      1.0  0.93192  0.07738  0.23798  1.0000
  C  Sn16      1.0  0.93934  0.09519  0.09389  1.0000
  O  Te13      1.0  0.88320  0.12967  0.90859  1.0000
  O  Te14      1.0  0.85750  0.09543  0.40023  1.0000
  O  Te15      1.0  0.89788  0.05921  0.48456  1.0000
  O  Te16      1.0  0.92358  0.09347  0.99284  1.0000
  Mg  Mg7       1.0  0.85812  0.06713  0.58251  1.0000
  Mg  Mg8       1.0  0.92298  0.12177  0.81060  1.0000
  C  Sn17      1.0  0.38557  0.42063  0.26817  1.0000
  C   C217      1.0  0.38814  0.39522  0.17463  1.0000
  C  Sn18      1.0  0.41421  0.38410  0.09584  1.0000
  C  Sn19      1.0  0.43822  0.39868  0.11094  1.0000
  C   C218      1.0  0.43564  0.42407  0.20445  1.0000
  C  Sn20      1.0  0.40958  0.43520  0.28327  1.0000
  O  Te17      1.0  0.35930  0.43134  0.34588  1.0000
  O  Te18      1.0  0.41626  0.35867  0.00295  1.0000
  O  Te19      1.0  0.46450  0.38794  0.03312  1.0000
  O  Te20      1.0  0.40752  0.46061  0.37613  1.0000
  Mg  Mg9       1.0  0.41364  0.35106  0.92038  1.0000
  Mg  Mg10      1.0  0.36718  0.46670  0.45882  1.0000
  C  Sn21      1.0  0.61265  0.41802  0.23250  1.0000
  C   C219      1.0  0.60920  0.39283  0.33118  1.0000
  C  Sn22      1.0  0.58277  0.38255  0.41048  1.0000
  C  Sn23      1.0  0.55928  0.39775  0.39066  1.0000
  C   C220      1.0  0.56273  0.42291  0.29201  1.0000
  C  Sn24      1.0  0.58916  0.43321  0.21268  1.0000
  O  Te21      1.0  0.63927  0.42790  0.15438  1.0000
  O  Te22      1.0  0.57984  0.35733  0.50856  1.0000
  O  Te23      1.0  0.53264  0.38784  0.46889  1.0000
  O  Te24      1.0  0.59209  0.45841  0.11463  1.0000
  Mg  Mg11      1.0  0.53931  0.35247  0.58959  1.0000
  Mg  Mg12      1.0  0.63261  0.46328  0.03347  1.0000
  C  Sn25      1.0  0.92602  0.88136  0.13288  1.0000
  C   C221      1.0  0.89845  0.88101  0.22838  1.0000
  C  Sn26      1.0  0.88606  0.90597  0.30844  1.0000
  C  Sn27      1.0  0.90156  0.93182  0.29264  1.0000
  C   C222      1.0  0.92911  0.93217  0.19717  1.0000
  C  Sn28      1.0  0.94152  0.90721  0.11708  1.0000
  O  Te25      1.0  0.93798  0.85616  0.05393  1.0000
  O  Te26      1.0  0.85847  0.90509  0.40328  1.0000
  O  Te27      1.0  0.88957  0.95704  0.37169  1.0000
  O  Te28      1.0  0.96909  0.90809  0.02227  1.0000
  Mg  Mg13      1.0  0.85136  0.94501  0.48698  1.0000
  Mg  Mg14      1.0  0.93324  0.86666  0.93845  1.0000
  C  Sn29      1.0  0.11362  0.92092  0.24193  1.0000
  C   C223      1.0  0.11120  0.89512  0.33443  1.0000
  C  Sn30      1.0  0.08519  0.88367  0.41269  1.0000
  C  Sn31      1.0  0.06110  0.89830  0.39811  1.0000
  C   C224      1.0  0.06353  0.92408  0.30564  1.0000
  C  Sn32      1.0  0.08953  0.93555  0.22735  1.0000
  O  Te29      1.0  0.13983  0.93198  0.16474  1.0000
  O  Te30      1.0  0.08330  0.85785  0.50454  1.0000
  O  Te31      1.0  0.03488  0.88722  0.47541  1.0000
  O  Te32      1.0  0.09143  0.96135  0.13553  1.0000
  Mg  Mg15      1.0  0.04298  0.85141  0.58674  1.0000
  Mg  Mg16      1.0  0.13173  0.96780  0.05320  1.0000
  C  Sn33      1.0  0.69512  0.68972  0.19853  1.0000
  C   C225      1.0  0.69432  0.71558  0.28615  1.0000
  C  Sn34      1.0  0.67392  0.72027  0.43748  1.0000
  C  Sn35      1.0  0.65391  0.69866  0.50268  1.0000
  C   C226      1.0  0.65471  0.67282  0.41510  1.0000
  C  Sn36      1.0  0.67510  0.66811  0.26373  1.0000
  O  Te33      1.0  0.71570  0.68550  0.04748  1.0000
  O  Te34      1.0  0.67354  0.74630  0.52278  1.0000
  O  Te35      1.0  0.63331  0.70290  0.65385  1.0000
  O  Te36      1.0  0.67549  0.64210  0.17847  1.0000
  Mg  Mg17      1.0  0.64142  0.74192  0.72377  1.0000
  Mg  Mg18      1.0  0.66464  0.64492  0.97752  1.0000
  C  Sn37      1.0  0.35221  0.71289  0.03811  1.0000
  C   C227      1.0  0.35083  0.68588  0.11708  1.0000
  C  Sn38      1.0  0.32545  0.67464  0.20947  1.0000
  C  Sn39      1.0  0.30093  0.69072  0.22312  1.0000
  C   C228      1.0  0.30232  0.71771  0.14416  1.0000
  C  Sn40      1.0  0.32769  0.72897  0.05176  1.0000
  O  Te37      1.0  0.33483  0.72218  0.94639  1.0000
  O  Te38      1.0  0.32459  0.64760  0.28735  1.0000
  O  Te39      1.0  0.27533  0.67988  0.31494  1.0000
  O  Te40      1.0  0.28558  0.75446  0.97389  1.0000
  Mg  Mg19      1.0  0.28479  0.64205  0.39825  1.0000
  Mg  Mg20      1.0  0.32536  0.76003  0.86289  1.0000
  C  Sn41      1.0  0.15024  0.20943  0.46574  1.0000
  C   C229      1.0  0.15125  0.18286  0.38511  1.0000
  C  Sn42      1.0  0.17643  0.17170  0.29049  1.0000
  C  Sn43      1.0  0.20114  0.18741  0.27624  1.0000
  C   C230      1.0  0.20013  0.21395  0.35686  1.0000
  C  Sn44      1.0  0.17495  0.22514  0.45149  1.0000
  O  Te41      1.0  0.12484  0.22018  0.55969  1.0000
  O  Te42      1.0  0.17692  0.14510  0.21098  1.0000
  O  Te43      1.0  0.22656  0.17663  0.18220  1.0000
  O  Te44      1.0  0.17446  0.25172  0.53099  1.0000
  Mg  Mg21      1.0  0.21658  0.13947  0.09728  1.0000
  Mg  Mg22      1.0  0.13481  0.25736  0.64479  1.0000
  C  Sn45      1.0  0.78438  0.21030  0.99309  1.0000
  C   C231      1.0  0.80216  0.21222  0.11785  1.0000
  C  Sn46      1.0  0.79778  0.19404  0.26016  1.0000
  C  Sn47      1.0  0.81902  0.17510  0.27821  1.0000
  C   C232      1.0  0.84420  0.17472  0.15352  1.0000
  C  Sn48      1.0  0.84860  0.19288  0.01114  1.0000
  O  Te45      1.0  0.78831  0.22865  0.85188  1.0000
  O  Te46      1.0  0.77241  0.19481  0.38318  1.0000
  O  Te47      1.0  0.81507  0.15673  0.41957  1.0000
  O  Te48      1.0  0.83097  0.19059  0.88819  1.0000
  Mg  Mg23      1.0  0.77698  0.16570  0.55279  1.0000
  Mg  Mg24      1.0  0.82644  0.21970  0.71859  1.0000
  C  Sn49      1.0  0.30580  0.29427  0.98774  1.0000
  C   C233      1.0  0.34633  0.32336  0.05760  1.0000
  C  Sn50      1.0  0.32504  0.32966  0.20203  1.0000
  C  Sn51      1.0  0.30579  0.30795  0.27830  1.0000
  C   C234      1.0  0.30824  0.28040  0.20848  1.0000
  C  Sn52      1.0  0.32952  0.27409  0.06402  1.0000
  O  Te49      1.0  0.32725  0.28845  0.84331  1.0000
  O  Te50      1.0  0.32302  0.35738  0.26952  1.0000
  O  Te51      1.0  0.28433  0.31379  0.42284  1.0000
  O  Te52      1.0  0.28857  0.24486  0.99655  1.0000
  Mg  Mg25      1.0  0.29024  0.35478  0.46766  1.0000
  Mg  Mg26      1.0  0.32136  0.24742  0.79849  1.0000
  C  Sn53      1.0  0.69344  0.31461  0.31325  1.0000
  C   C235      1.0  0.69067  0.28644  0.37743  1.0000
  C  Sn54      1.0  0.66452  0.27484  0.45012  1.0000
  C  Sn55      1.0  0.64064  0.29174  0.45876  1.0000
  C   C236      1.0  0.64342  0.31989  0.39459  1.0000
  C  Sn56      1.0  0.66957  0.33151  0.32189  1.0000
  O  Te53      1.0  0.71979  0.32577  0.24111  1.0000
  O  Te54      1.0  0.66227  0.24663  0.51348  1.0000
  O  Te55      1.0  0.61429  0.28055  0.53098  1.0000
  O  Te56      1.0  0.67182  0.35970  0.25853  1.0000
  Mg  Mg27      1.0  0.62189  0.24104  0.59979  1.0000
  Mg  Mg28      1.0  0.71219  0.36531  0.17212  1.0000
  C  Sn57      1.0  0.81938  0.82282  0.28808  1.0000
  C   C237      1.0  0.84624  0.82243  0.18154  1.0000
  C  Sn58      1.0  0.85389  0.80202  0.05266  1.0000
  C  Sn59      1.0  0.83428  0.78157  0.02971  1.0000
  C   C238      1.0  0.80745  0.78197  0.13617  1.0000
  C  Sn60      1.0  0.79978  0.80237  0.26512  1.0000
  O  Te57      1.0  0.81219  0.84343  0.41608  1.0000
  O  Te58      1.0  0.83789  0.80052  0.94779  1.0000
  O  Te59      1.0  0.79853  0.75942  0.90157  1.0000
  O  Te60      1.0  0.77282  0.80235  0.36993  1.0000
  Mg  Mg29      1.0  0.83777  0.76819  0.79121  1.0000
  Mg  Mg30      1.0  0.77291  0.83468  0.52648  1.0000
  C  Sn61      1.0  0.18082  0.82417  0.23053  1.0000
  C   C239      1.0  0.15417  0.82317  0.33960  1.0000
  C  Sn62      1.0  0.14698  0.80191  0.46604  1.0000
  C  Sn63      1.0  0.16686  0.78122  0.48392  1.0000
  C   C240      1.0  0.19349  0.78222  0.37492  1.0000
  C  Sn64      1.0  0.20070  0.80348  0.24842  1.0000
  O  Te61      1.0  0.18755  0.84562  0.10504  1.0000
  O  Te62      1.0  0.12020  0.80134  0.57352  1.0000
  O  Te63      1.0  0.16011  0.75976  0.60955  1.0000
  O  Te64      1.0  0.22746  0.80405  0.14100  1.0000
  Mg  Mg31      1.0  0.12097  0.76794  0.72505  1.0000
  Mg  Mg32      1.0  0.18374  0.83592  0.98949  1.0000
  C  Sn65      1.0  0.61104  0.58928  0.64505  1.0000
  C   C241      1.0  0.60894  0.61400  0.74419  1.0000
  C  Sn66      1.0  0.58656  0.61763  0.88676  1.0000
  C  Sn67      1.0  0.56586  0.59608  0.93123  1.0000
  C   C242      1.0  0.56797  0.57137  0.83213  1.0000
  C  Sn68      1.0  0.59035  0.56773  0.68952  1.0000
  O  Te65      1.0  0.63360  0.58610  0.50308  1.0000
  O  Te66      1.0  0.58489  0.64254  0.98388  1.0000
  O  Te67      1.0  0.58627  0.60081  0.07333  1.0000
  O  Te68      1.0  0.59202  0.54284  0.59244  1.0000
  Mg  Mg33      1.0  0.59319  0.63851  0.16563  1.0000
  Mg  Mg34      1.0  0.62669  0.54836  0.41073  1.0000
  C  Sn69      1.0  0.39236  0.59146  0.83008  1.0000
  C   C243      1.0  0.39494  0.61628  0.72864  1.0000
  C  Sn70      1.0  0.41731  0.61953  0.58526  1.0000
  C  Sn71      1.0  0.43751  0.59751  0.54228  1.0000
  C   C244      1.0  0.43492  0.57271  0.64366  1.0000
  C  Sn72      1.0  0.41256  0.56944  0.78710  1.0000
  O  Te69      1.0  0.36982  0.58867  0.97284  1.0000
  O  Te70      1.0  0.41946  0.64453  0.48583  1.0000
  O  Te71      1.0  0.46006  0.60032  0.39939  1.0000
  O  Te72      1.0  0.41040  0.54446  0.88647  1.0000
  Mg  Mg35      1.0  0.45390  0.63834  0.30382  1.0000
  Mg  Mg36      1.0  0.41894  0.55215  0.06846  1.0000
  C  Sn73      1.0  0.10981  0.09155  0.67003  1.0000
  C   C245      1.0  0.10738  0.11590  0.77251  1.0000
  C  Sn74      1.0  0.08493  0.11886  0.91537  1.0000
  C  Sn75      1.0  0.06449  0.09702  0.95673  1.0000
  C   C246      1.0  0.06693  0.07269  0.85431  1.0000
  C  Sn76      1.0  0.08937  0.06971  0.71139  1.0000
  O  Te73      1.0  0.13243  0.08904  0.52782  1.0000
  O  Te74      1.0  0.12592  0.14494  0.01586  1.0000
  O  Te75      1.0  0.08483  0.10108  0.09907  1.0000
  O  Te76      1.0  0.09136  0.04518  0.61096  1.0000
  Mg  Mg37      1.0  0.09128  0.13849  0.19655  1.0000
  Mg  Mg38      1.0  0.12600  0.05160  0.43029  1.0000
  C  Sn77      1.0  0.93902  0.10905  0.62047  1.0000
  C   C247      1.0  0.93583  0.08379  0.71839  1.0000
  C  Sn78      1.0  0.90952  0.07288  0.79447  1.0000
  C  Sn79      1.0  0.88589  0.08750  0.77213  1.0000
  C   C248      1.0  0.88909  0.11274  0.67423  1.0000
  C  Sn80      1.0  0.91540  0.12367  0.59812  1.0000
  O  Te77      1.0  0.96552  0.11957  0.54558  1.0000
  O  Te78      1.0  0.90685  0.04759  0.89185  1.0000
  O  Te79      1.0  0.85938  0.07696  0.84712  1.0000
  O  Te80      1.0  0.91807  0.14894  0.50078  1.0000
  Mg  Mg39      1.0  0.86639  0.04177  0.96810  1.0000
  Mg  Mg40      1.0  0.95851  0.15478  0.42440  1.0000
  C  Sn81      1.0  0.42459  0.38008  0.62269  1.0000
  C   C249      1.0  0.39704  0.38104  0.71835  1.0000
  C  Sn82      1.0  0.38564  0.40668  0.79428  1.0000
  C  Sn83      1.0  0.40211  0.43190  0.77410  1.0000
  C   C250      1.0  0.42964  0.43094  0.67847  1.0000
  C  Sn84      1.0  0.44106  0.40531  0.60250  1.0000
  O  Te81      1.0  0.43556  0.35422  0.54790  1.0000
  O  Te82      1.0  0.35805  0.40710  0.88938  1.0000
  O  Te83      1.0  0.39112  0.45778  0.84899  1.0000
  O  Te84      1.0  0.46863  0.40488  0.50744  1.0000
  Mg  Mg41      1.0  0.35250  0.44751  0.96643  1.0000
  Mg  Mg42      1.0  0.47420  0.36449  0.43026  1.0000
  C  Sn85      1.0  0.59744  0.42067  0.65078  1.0000
  C   C251      1.0  0.57027  0.42073  0.75294  1.0000
  C  Sn86      1.0  0.56251  0.40268  0.89583  1.0000
  C  Sn87      1.0  0.58232  0.38420  0.93755  1.0000
  C   C252      1.0  0.60946  0.38416  0.83544  1.0000
  C  Sn88      1.0  0.61725  0.40220  0.69250  1.0000
  O  Te85      1.0  0.60475  0.43889  0.50854  1.0000
  O  Te86      1.0  0.53522  0.40311  0.99600  1.0000
  O  Te87      1.0  0.61796  0.36751  0.07992  1.0000
  O  Te88      1.0  0.64451  0.40178  0.59238  1.0000
  Mg  Mg43      1.0  0.57827  0.37588  0.17689  1.0000
  Mg  Mg44      1.0  0.64446  0.43053  0.41153  1.0000
  C  Sn89      1.0  0.92571  0.87993  0.63881  1.0000
  C   C253      1.0  0.89809  0.88054  0.73341  1.0000
  C  Sn90      1.0  0.88631  0.90605  0.80920  1.0000
  C  Sn91      1.0  0.90246  0.93148  0.78996  1.0000
  C   C254      1.0  0.93006  0.93087  0.69539  1.0000
  C  Sn92      1.0  0.94186  0.90537  0.61957  1.0000
  O  Te89      1.0  0.93706  0.85419  0.56415  1.0000
  O  Te90      1.0  0.85865  0.90612  0.90323  1.0000
  O  Te91      1.0  0.89108  0.95724  0.86473  1.0000
  O  Te92      1.0  0.96949  0.90529  0.52557  1.0000
  Mg  Mg45      1.0  0.85253  0.94648  0.98054  1.0000
  Mg  Mg46      1.0  0.97564  0.86495  0.44813  1.0000
  C  Sn93      1.0  0.07632  0.88027  0.89042  1.0000
  C   C255      1.0  0.10369  0.88096  0.79149  1.0000
  C  Sn94      1.0  0.11509  0.90647  0.71082  1.0000
  C  Sn95      1.0  0.09881  0.93182  0.72949  1.0000
  C   C256      1.0  0.07146  0.93112  0.82839  1.0000
  C  Sn96      1.0  0.06004  0.90562  0.90909  1.0000
  O  Te93      1.0  0.06535  0.85454  0.96993  1.0000
  O  Te94      1.0  0.14250  0.90662  0.61252  1.0000
  O  Te95      1.0  0.10980  0.95756  0.64987  1.0000
  O  Te96      1.0  0.07562  0.90699  0.00736  1.0000
  Mg  Mg47      1.0  0.14813  0.94694  0.52941  1.0000
  Mg  Mg48      1.0  0.06997  0.86670  0.09059  1.0000
  C  Sn97      1.0  0.69372  0.68969  0.70655  1.0000
  C   C257      1.0  0.69198  0.71610  0.78973  1.0000
  C  Sn98      1.0  0.67097  0.72107  0.93785  1.0000
  C  Sn99      1.0  0.69428  0.70072  0.00429  1.0000
  C   C258      1.0  0.65306  0.67281  0.92115  1.0000
  C  Sn100     1.0  0.67405  0.66782  0.77300  1.0000
  O  Te97      1.0  0.71489  0.68519  0.55865  1.0000
  O  Te98      1.0  0.71262  0.74917  0.01872  1.0000
  O  Te99      1.0  0.67310  0.70525  0.15231  1.0000
  O  Te100     1.0  0.67538  0.64126  0.69216  1.0000
  Mg  Mg49      1.0  0.67998  0.74500  0.21663  1.0000
  Mg  Mg50      1.0  0.70803  0.64541  0.49430  1.0000
  C  Sn101     1.0  0.35706  0.71335  0.53951  1.0000
  C   C259      1.0  0.35447  0.68549  0.60833  1.0000
  C  Sn102     1.0  0.32846  0.67432  0.68939  1.0000
  C  Sn103     1.0  0.30454  0.69135  0.70185  1.0000
  C   C260      1.0  0.30714  0.71919  0.63304  1.0000
  C  Sn104     1.0  0.33315  0.73037  0.55197  1.0000
  O  Te101     1.0  0.38327  0.72407  0.45902  1.0000
  O  Te102     1.0  0.32638  0.64642  0.75726  1.0000
  O  Te103     1.0  0.27832  0.68060  0.78243  1.0000
  O  Te104     1.0  0.33523  0.75826  0.48411  1.0000
  Mg  Mg51      1.0  0.28614  0.64138  0.85477  1.0000
  Mg  Mg52      1.0  0.37545  0.76331  0.38649  1.0000
  C  Sn105     1.0  0.20496  0.21979  0.02495  1.0000
  C   C261      1.0  0.18846  0.21821  0.91344  1.0000
  C  Sn106     1.0  0.19591  0.19736  0.78696  1.0000
  C  Sn107     1.0  0.17649  0.17612  0.77153  1.0000
  C   C262      1.0  0.15003  0.17617  0.88297  1.0000
  C  Sn108     1.0  0.18554  0.19855  0.00952  1.0000
  O  Te105     1.0  0.19796  0.24084  0.15043  1.0000
  O  Te106     1.0  0.22250  0.19774  0.67701  1.0000
  O  Te107     1.0  0.18351  0.15506  0.64592  1.0000
  O  Te108     1.0  0.15897  0.19817  0.11940  1.0000
  Mg  Mg53      1.0  0.22223  0.16456  0.52654  1.0000
  Mg  Mg54      1.0  0.15920  0.23135  0.26986  1.0000
  C  Sn109     1.0  0.83974  0.21901  0.48137  1.0000
  C   C263      1.0  0.81300  0.21813  0.58942  1.0000
  C  Sn110     1.0  0.80532  0.19632  0.71208  1.0000
  C  Sn111     1.0  0.82477  0.17494  0.72714  1.0000
  C   C264      1.0  0.85149  0.17583  0.61915  1.0000
  C  Sn112     1.0  0.85919  0.19764  0.49643  1.0000
  O  Te109     1.0  0.84697  0.24101  0.35967  1.0000
  O  Te110     1.0  0.77847  0.19588  0.81862  1.0000
  O  Te111     1.0  0.81752  0.15293  0.84896  1.0000
  O  Te112     1.0  0.88602  0.19808  0.38996  1.0000
  Mg  Mg55      1.0  0.77848  0.16155  0.96459  1.0000
  Mg  Mg56      1.0  0.88604  0.23241  0.24400  1.0000
  C  Sn113     1.0  0.29903  0.31948  0.74473  1.0000
  C   C265      1.0  0.29974  0.29311  0.66240  1.0000
  C  Sn114     1.0  0.32481  0.28175  0.56735  1.0000
  C  Sn115     1.0  0.34969  0.29707  0.55439  1.0000
  C   C266      1.0  0.34897  0.32342  0.63671  1.0000
  C  Sn116     1.0  0.32391  0.33480  0.73177  1.0000
  O  Te113     1.0  0.27373  0.33042  0.83907  1.0000
  O  Te114     1.0  0.32501  0.25535  0.48612  1.0000
  O  Te115     1.0  0.37500  0.28610  0.45994  1.0000
  O  Te116     1.0  0.32371  0.36118  0.81298  1.0000
  Mg  Mg57      1.0  0.36461  0.24934  0.37252  1.0000
  Mg  Mg58      1.0  0.28412  0.36721  0.92669  1.0000
  C  Sn117     1.0  0.70149  0.29974  0.01623  1.0000
  C   C267      1.0  0.65832  0.32409  0.92757  1.0000
  C  Sn118     1.0  0.67717  0.32871  0.76938  1.0000
  C  Sn119     1.0  0.69661  0.30700  0.69826  1.0000
  C   C268      1.0  0.69680  0.28114  0.78688  1.0000
  C  Sn120     1.0  0.67796  0.27650  0.94510  1.0000
  O  Te117     1.0  0.68246  0.29558  0.17418  1.0000
  O  Te118     1.0  0.67658  0.35476  0.68317  1.0000
  O  Te119     1.0  0.71565  0.31118  0.54018  1.0000
  O  Te120     1.0  0.72152  0.25200  0.03128  1.0000
  Mg  Mg59      1.0  0.70668  0.35026  0.47175  1.0000
  Mg  Mg60      1.0  0.69142  0.25647  0.24266  1.0000
  C  Sn121     1.0  0.84019  0.77861  0.58284  1.0000
  C   C269      1.0  0.81377  0.77859  0.69494  1.0000
  C  Sn122     1.0  0.80209  0.80416  0.77041  1.0000
  C  Sn123     1.0  0.81713  0.83030  0.73299  1.0000
  C   C270      1.0  0.84354  0.83031  0.62094  1.0000
  C  Sn124     1.0  0.85523  0.80474  0.54542  1.0000
  O  Te121     1.0  0.85146  0.75279  0.50885  1.0000
  O  Te122     1.0  0.77565  0.80361  0.88212  1.0000
  O  Te123     1.0  0.80584  0.85613  0.80710  1.0000
  O  Te124     1.0  0.88166  0.80529  0.43376  1.0000
  Mg  Mg61      1.0  0.76914  0.84435  0.95092  1.0000
  Mg  Mg62      1.0  0.88818  0.76457  0.36482  1.0000
  C  Sn125     1.0  0.18379  0.82367  0.70562  1.0000
  C   C271      1.0  0.15794  0.82312  0.82403  1.0000
  C  Sn126     1.0  0.15256  0.80360  0.96039  1.0000
  C  Sn127     1.0  0.17347  0.78423  0.97887  1.0000
  C   C272      1.0  0.19930  0.78479  0.86053  1.0000
  C  Sn128     1.0  0.20470  0.80430  0.72410  1.0000
  O  Te125     1.0  0.18871  0.84337  0.57029  1.0000
  O  Te126     1.0  0.16953  0.80499  0.07711  1.0000
  O  Te127     1.0  0.21150  0.76606  0.11434  1.0000
  O  Te128     1.0  0.23069  0.80445  0.60745  1.0000
  Mg  Mg63      1.0  0.17281  0.77416  0.24016  1.0000
  Mg  Mg64      1.0  0.22744  0.83528  0.44441  1.0000
