data_image0
_chemical_formula_structural       H264C304N48O16C2Sn2C2HTe2HMgC2Sn2C2HTe2HMgC2Sn2C2HTe2HMgC2Sn2C2HTe2HMgC2Sn2C2HTe2HMgC2Sn2C2HTe2HMgC2Sn2C2HTe2HMgC2Sn2C2HTe2HMgC2Sn2C2HTe2HMgC2Sn2C2HTe2HMgC2Sn2C2HTe2HMgC2Sn2C2HTe2HMgC2Sn2C2HTe2HMgC2Sn2C2HTe2HMgC2Sn2C2HTe2HMgC2Sn2C2HTe2HMg
_chemical_formula_sum              "H296 C368 N48 O16 Sn32 Te32 Mg16"
_cell_length_a       47.3513
_cell_length_b       48.2059
_cell_length_c       8.17915
_cell_angle_alpha    88.6675
_cell_angle_beta     86.8316
_cell_angle_gamma    89.8936

_symmetry_space_group_name_H-M    'P1'
_space_group_IT_number       1

loop_
  _space_group_symop_operation_xyz
  'x, y, z'

loop_
  _atom_site_type_symbol
  _atom_site_label
  _atom_site_symmetry_multiplicity
  _atom_site_fract_x
  _atom_site_fract_y
  _atom_site_fract_z
  _atom_site_occupancy
  H   H1        1.0  0.47310  0.60725  0.18420  1.0000
  H   H2        1.0  0.52546  0.60756  0.29107  1.0000
  H   H3        1.0  0.52706  0.39437  0.31060  1.0000
  H   H4        1.0  0.47467  0.39394  0.20546  1.0000
  H   H5        1.0  0.97406  0.10782  0.17835  1.0000
  H   H6        1.0  0.02584  0.10756  0.29043  1.0000
  H   H7        1.0  0.02624  0.89422  0.32092  1.0000
  H   H8        1.0  0.97435  0.89435  0.21011  1.0000
  H   H9        1.0  0.40407  0.52695  0.49406  1.0000
  H   H10       1.0  0.59627  0.52825  0.99918  1.0000
  H   H11       1.0  0.59685  0.47265  0.00645  1.0000
  H   H12       1.0  0.40483  0.47122  0.49892  1.0000
  H   H13       1.0  0.90407  0.02668  0.49560  1.0000
  H   H14       1.0  0.09570  0.02786  0.00883  1.0000
  H   H15       1.0  0.09599  0.97213  0.01507  1.0000
  H   H16       1.0  0.90431  0.97091  0.50402  1.0000
  H   H17       1.0  0.54429  0.59792  0.02893  1.0000
  H   H18       1.0  0.45410  0.59682  0.44268  1.0000
  H   H19       1.0  0.95649  0.90063  0.47067  1.0000
  H   H20       1.0  0.57975  0.63472  0.04612  1.0000
  H   H21       1.0  0.41828  0.63347  0.42062  1.0000
  H   H22       1.0  0.92061  0.86429  0.44953  1.0000
  H   H23       1.0  0.63859  0.58624  0.22355  1.0000
  H   H24       1.0  0.63814  0.41345  0.24413  1.0000
  H   H25       1.0  0.13678  0.08913  0.23728  1.0000
  H   H26       1.0  0.13750  0.91273  0.25310  1.0000
  H   H27       1.0  0.60104  0.55045  0.21453  1.0000
  H   H28       1.0  0.60172  0.45058  0.22551  1.0000
  H   H29       1.0  0.10052  0.05210  0.22497  1.0000
  H   H30       1.0  0.10109  0.94971  0.23456  1.0000
  H   H31       1.0  0.62193  0.65636  0.56859  1.0000
  H   H32       1.0  0.38105  0.66241  0.94099  1.0000
  H   H33       1.0  0.38101  0.34119  0.94407  1.0000
  H   H34       1.0  0.60982  0.33468  0.51363  1.0000
  H   H35       1.0  0.11661  0.15972  0.57430  1.0000
  H   H36       1.0  0.88193  0.16389  0.93631  1.0000
  H   H37       1.0  0.88145  0.84377  0.93079  1.0000
  H   H38       1.0  0.10721  0.83298  0.49610  1.0000
  H   H39       1.0  0.63715  0.70447  0.59466  1.0000
  H   H40       1.0  0.36421  0.70950  0.92115  1.0000
  H   H41       1.0  0.36665  0.29225  0.93246  1.0000
  H   H42       1.0  0.62519  0.28761  0.53362  1.0000
  H   H43       1.0  0.67055  0.74265  0.52357  1.0000
  H   H44       1.0  0.32988  0.74623  0.99667  1.0000
  H   H45       1.0  0.33280  0.25460  0.00672  1.0000
  H   H46       1.0  0.65934  0.25047  0.47039  1.0000
  H   H47       1.0  0.71906  0.68898  0.20043  1.0000
  H   H48       1.0  0.28156  0.68750  0.30302  1.0000
  H   H49       1.0  0.28343  0.31031  0.31256  1.0000
  H   H50       1.0  0.71728  0.31101  0.24502  1.0000
  H   H51       1.0  0.68410  0.65111  0.26421  1.0000
  H   H52       1.0  0.31754  0.65101  0.23429  1.0000
  H   H53       1.0  0.31916  0.34755  0.24799  1.0000
  H   H54       1.0  0.68210  0.34809  0.30554  1.0000
  H   H55       1.0  0.66757  0.76566  0.29462  1.0000
  H   H56       1.0  0.33082  0.76606  0.23364  1.0000
  H   H57       1.0  0.33332  0.23292  0.25176  1.0000
  H   H58       1.0  0.66394  0.23149  0.25095  1.0000
  H   H59       1.0  0.16389  0.26916  0.27125  1.0000
  H   H60       1.0  0.83295  0.26845  0.23445  1.0000
  H   H61       1.0  0.83715  0.73121  0.18995  1.0000
  H   H62       1.0  0.16140  0.73019  0.23529  1.0000
  H   H63       1.0  0.67874  0.78133  0.10492  1.0000
  H   H64       1.0  0.31679  0.78103  0.41573  1.0000
  H   H65       1.0  0.31925  0.21772  0.43745  1.0000
  H   H66       1.0  0.68033  0.21452  0.08086  1.0000
  H   H67       1.0  0.17739  0.28470  0.08543  1.0000
  H   H68       1.0  0.81928  0.28451  0.41395  1.0000
  H   H69       1.0  0.82758  0.71877  0.38922  1.0000
  H   H70       1.0  0.17852  0.71247  0.07114  1.0000
  H   H71       1.0  0.69266  0.82357  0.22745  1.0000
  H   H72       1.0  0.30414  0.82341  0.28175  1.0000
  H   H73       1.0  0.30598  0.17566  0.30980  1.0000
  H   H74       1.0  0.69282  0.17432  0.24519  1.0000
  H   H75       1.0  0.19161  0.32619  0.21322  1.0000
  H   H76       1.0  0.80506  0.32565  0.26738  1.0000
  H   H77       1.0  0.81083  0.67492  0.29248  1.0000
  H   H78       1.0  0.18999  0.67307  0.24456  1.0000
  H   H79       1.0  0.69075  0.80916  0.42526  1.0000
  H   H80       1.0  0.30817  0.80980  0.08601  1.0000
  H   H81       1.0  0.31158  0.18962  0.11203  1.0000
  H   H82       1.0  0.68063  0.18950  0.42792  1.0000
  H   H83       1.0  0.18756  0.31174  0.41061  1.0000
  H   H84       1.0  0.81049  0.31049  0.07658  1.0000
  H   H85       1.0  0.81384  0.68589  0.08769  1.0000
  H   H86       1.0  0.17720  0.68933  0.42304  1.0000
  H   H87       1.0  0.63786  0.80304  0.41156  1.0000
  H   H88       1.0  0.36069  0.80492  0.11405  1.0000
  H   H89       1.0  0.36393  0.19401  0.15494  1.0000
  H   H90       1.0  0.63118  0.19100  0.33338  1.0000
  H   H91       1.0  0.13479  0.30816  0.38448  1.0000
  H   H92       1.0  0.86298  0.30705  0.11805  1.0000
  H   H93       1.0  0.86703  0.69042  0.10494  1.0000
  H   H94       1.0  0.12818  0.69105  0.31793  1.0000
  H   H95       1.0  0.63964  0.81635  0.20980  1.0000
  H   H96       1.0  0.35715  0.81654  0.31573  1.0000
  H   H97       1.0  0.35835  0.18104  0.35629  1.0000
  H   H98       1.0  0.64279  0.17802  0.14282  1.0000
  H   H99       1.0  0.13853  0.32155  0.18314  1.0000
  H   H100      1.0  0.85776  0.32154  0.31212  1.0000
  H   H101      1.0  0.86388  0.68044  0.31259  1.0000
  H   H102      1.0  0.14065  0.67533  0.13667  1.0000
  H   H103      1.0  0.65307  0.84934  0.01740  1.0000
  H   H104      1.0  0.34651  0.86725  0.69053  1.0000
  H   H105      1.0  0.37910  0.14219  0.67323  1.0000
  H   H106      1.0  0.65919  0.14747  0.96147  1.0000
  H   H107      1.0  0.15554  0.35099  0.98892  1.0000
  H   H108      1.0  0.85015  0.35732  0.48326  1.0000
  H   H109      1.0  0.84086  0.63548  0.70165  1.0000
  H   H110      1.0  0.15540  0.64795  0.95084  1.0000
  H   H111      1.0  0.65670  0.86246  0.30663  1.0000
  H   H112      1.0  0.34027  0.86321  0.21662  1.0000
  H   H113      1.0  0.34093  0.13554  0.24937  1.0000
  H   H114      1.0  0.62186  0.13957  0.32353  1.0000
  H   H115      1.0  0.15772  0.36652  0.28619  1.0000
  H   H116      1.0  0.87409  0.35793  0.09772  1.0000
  H   H117      1.0  0.87809  0.63937  0.14357  1.0000
  H   H118      1.0  0.15459  0.63252  0.29821  1.0000
  H   H119      1.0  0.65556  0.84927  0.51042  1.0000
  H   H120      1.0  0.34188  0.85168  0.01278  1.0000
  H   H121      1.0  0.34671  0.14853  0.04642  1.0000
  H   H122      1.0  0.65841  0.13339  0.28043  1.0000
  H   H123      1.0  0.15410  0.35317  0.48938  1.0000
  H   H124      1.0  0.84013  0.36597  0.18661  1.0000
  H   H125      1.0  0.84384  0.63390  0.23768  1.0000
  H   H126      1.0  0.14216  0.64823  0.48173  1.0000
  H   H127      1.0  0.49991  0.47782  0.24795  1.0000
  H   H128      1.0  0.50015  0.52376  0.24525  1.0000
  H   H129      1.0  0.97828  0.00150  0.21456  1.0000
  H   H130      1.0  0.02167  0.00042  0.28785  1.0000
  H   H131      1.0  0.47339  0.60606  0.68295  1.0000
  H   H132      1.0  0.52602  0.60634  0.78590  1.0000
  H   H133      1.0  0.52729  0.39330  0.81873  1.0000
  H   H134      1.0  0.47485  0.39315  0.71281  1.0000
  H   H135      1.0  0.97335  0.10575  0.68544  1.0000
  H   H136      1.0  0.02535  0.10632  0.79395  1.0000
  H   H137      1.0  0.02665  0.89285  0.82767  1.0000
  H   H138      1.0  0.97467  0.89247  0.71698  1.0000
  H   H139      1.0  0.40392  0.52832  0.99152  1.0000
  H   H140      1.0  0.59549  0.52876  0.50213  1.0000
  H   H141      1.0  0.59580  0.47315  0.50638  1.0000
  H   H142      1.0  0.40438  0.47273  0.99399  1.0000
  H   H143      1.0  0.90454  0.02859  0.98551  1.0000
  H   H144      1.0  0.09476  0.02904  0.51094  1.0000
  H   H145      1.0  0.09552  0.97331  0.51596  1.0000
  H   H146      1.0  0.90508  0.97288  0.99235  1.0000
  H   H147      1.0  0.54612  0.59988  0.52480  1.0000
  H   H148      1.0  0.54577  0.40322  0.55361  1.0000
  H   H149      1.0  0.04335  0.09958  0.53311  1.0000
  H   H150      1.0  0.04513  0.90244  0.56334  1.0000
  H   H151      1.0  0.58304  0.63565  0.53231  1.0000
  H   H152      1.0  0.58162  0.36652  0.57368  1.0000
  H   H153      1.0  0.07897  0.13659  0.54361  1.0000
  H   H154      1.0  0.08111  0.86584  0.58376  1.0000
  H   H155      1.0  0.63794  0.58841  0.73526  1.0000
  H   H156      1.0  0.36200  0.58734  0.75586  1.0000
  H   H157      1.0  0.86293  0.91018  0.76562  1.0000
  H   H158      1.0  0.60171  0.55142  0.71707  1.0000
  H   H159      1.0  0.39836  0.55019  0.77570  1.0000
  H   H160      1.0  0.89942  0.94664  0.78774  1.0000
  H   H161      1.0  0.61478  0.66071  0.05998  1.0000
  H   H162      1.0  0.39066  0.66540  0.47982  1.0000
  H   H163      1.0  0.38791  0.33624  0.47003  1.0000
  H   H164      1.0  0.61930  0.33740  0.05136  1.0000
  H   H165      1.0  0.11691  0.16047  0.06512  1.0000
  H   H166      1.0  0.89268  0.16702  0.47619  1.0000
  H   H167      1.0  0.88578  0.83680  0.44728  1.0000
  H   H168      1.0  0.11664  0.83522  0.03605  1.0000
  H   H169      1.0  0.62939  0.70899  0.07183  1.0000
  H   H170      1.0  0.37576  0.71235  0.45241  1.0000
  H   H171      1.0  0.37317  0.28847  0.46175  1.0000
  H   H172      1.0  0.63636  0.29032  0.06830  1.0000
  H   H173      1.0  0.13450  0.78892  0.05602  1.0000
  H   H174      1.0  0.66363  0.74645  0.00512  1.0000
  H   H175      1.0  0.34205  0.75013  0.51215  1.0000
  H   H176      1.0  0.33886  0.25115  0.52990  1.0000
  H   H177      1.0  0.67107  0.25398  0.99189  1.0000
  H   H178      1.0  0.16934  0.75278  0.97806  1.0000
  H   H179      1.0  0.71888  0.68840  0.75195  1.0000
  H   H180      1.0  0.28405  0.69123  0.75220  1.0000
  H   H181      1.0  0.28281  0.31008  0.76984  1.0000
  H   H182      1.0  0.71967  0.31369  0.69439  1.0000
  H   H183      1.0  0.21850  0.81317  0.68963  1.0000
  H   H184      1.0  0.68350  0.65104  0.81379  1.0000
  H   H185      1.0  0.31873  0.65347  0.69483  1.0000
  H   H186      1.0  0.31854  0.34722  0.70872  1.0000
  H   H187      1.0  0.68336  0.34982  0.76340  1.0000
  H   H188      1.0  0.18245  0.84935  0.76257  1.0000
  H   H189      1.0  0.66465  0.76699  0.78186  1.0000
  H   H190      1.0  0.33826  0.76975  0.73511  1.0000
  H   H191      1.0  0.33557  0.23119  0.75727  1.0000
  H   H192      1.0  0.67029  0.23439  0.75619  1.0000
  H   H193      1.0  0.16641  0.26813  0.76283  1.0000
  H   H194      1.0  0.83963  0.27282  0.71951  1.0000
  H   H195      1.0  0.83495  0.73336  0.74876  1.0000
  H   H196      1.0  0.16871  0.73453  0.74194  1.0000
  H   H197      1.0  0.67807  0.78395  0.60048  1.0000
  H   H198      1.0  0.32228  0.78689  0.90510  1.0000
  H   H199      1.0  0.32056  0.21516  0.93776  1.0000
  H   H200      1.0  0.68463  0.22009  0.57281  1.0000
  H   H201      1.0  0.18020  0.28415  0.57900  1.0000
  H   H202      1.0  0.82533  0.28844  0.89835  1.0000
  H   H203      1.0  0.82022  0.71433  0.92024  1.0000
  H   H204      1.0  0.18323  0.71990  0.56025  1.0000
  H   H205      1.0  0.69123  0.82476  0.74014  1.0000
  H   H206      1.0  0.31081  0.82740  0.74625  1.0000
  H   H207      1.0  0.30816  0.17379  0.79988  1.0000
  H   H208      1.0  0.69933  0.17802  0.70744  1.0000
  H   H209      1.0  0.19419  0.32525  0.71312  1.0000
  H   H210      1.0  0.81104  0.32962  0.75491  1.0000
  H   H211      1.0  0.80615  0.67637  0.74722  1.0000
  H   H212      1.0  0.19477  0.67699  0.69138  1.0000
  H   H213      1.0  0.68715  0.80873  0.93351  1.0000
  H   H214      1.0  0.32002  0.81197  0.55938  1.0000
  H   H215      1.0  0.31516  0.18870  0.60503  1.0000
  H   H216      1.0  0.69205  0.19078  0.90334  1.0000
  H   H217      1.0  0.18998  0.30994  0.90844  1.0000
  H   H218      1.0  0.81666  0.31516  0.56221  1.0000
  H   H219      1.0  0.81829  0.69423  0.56853  1.0000
  H   H220      1.0  0.19032  0.69003  0.88835  1.0000
  H   H221      1.0  0.63464  0.80434  0.90358  1.0000
  H   H222      1.0  0.37074  0.80860  0.63143  1.0000
  H   H223      1.0  0.36676  0.19303  0.65919  1.0000
  H   H224      1.0  0.64003  0.19325  0.85171  1.0000
  H   H225      1.0  0.13738  0.30574  0.87780  1.0000
  H   H226      1.0  0.86893  0.31197  0.60065  1.0000
  H   H227      1.0  0.86799  0.69364  0.66405  1.0000
  H   H228      1.0  0.13803  0.69548  0.85693  1.0000
  H   H229      1.0  0.63833  0.81903  0.70518  1.0000
  H   H230      1.0  0.36222  0.82245  0.82444  1.0000
  H   H231      1.0  0.36019  0.17970  0.85901  1.0000
  H   H232      1.0  0.64698  0.18207  0.65096  1.0000
  H   H233      1.0  0.14129  0.31992  0.67839  1.0000
  H   H234      1.0  0.86393  0.32491  0.79887  1.0000
  H   H235      1.0  0.85602  0.67770  0.84995  1.0000
  H   H236      1.0  0.14191  0.68518  0.65287  1.0000
  H   H237      1.0  0.62376  0.85333  0.40700  1.0000
  H   H238      1.0  0.37347  0.85525  0.11751  1.0000
  H   H239      1.0  0.37583  0.14305  0.17085  1.0000
  H   H240      1.0  0.64655  0.14629  0.47309  1.0000
  H   H241      1.0  0.12359  0.35929  0.37723  1.0000
  H   H242      1.0  0.84332  0.35149  0.98999  1.0000
  H   H243      1.0  0.84770  0.64366  0.02816  1.0000
  H   H244      1.0  0.11803  0.63974  0.33243  1.0000
  H   H245      1.0  0.62180  0.85476  0.91106  1.0000
  H   H246      1.0  0.35461  0.85341  0.49510  1.0000
  H   H247      1.0  0.34402  0.13422  0.74663  1.0000
  H   H248      1.0  0.63071  0.14187  0.83406  1.0000
  H   H249      1.0  0.12469  0.35629  0.87854  1.0000
  H   H250      1.0  0.88014  0.36294  0.59897  1.0000
  H   H251      1.0  0.85222  0.65128  0.51197  1.0000
  H   H252      1.0  0.12497  0.64498  0.83523  1.0000
  H   H253      1.0  0.65519  0.86393  0.81666  1.0000
  H   H254      1.0  0.38208  0.85960  0.62839  1.0000
  H   H255      1.0  0.35049  0.14759  0.54487  1.0000
  H   H256      1.0  0.66609  0.13656  0.75846  1.0000
  H   H257      1.0  0.15841  0.36504  0.78700  1.0000
  H   H258      1.0  0.84574  0.37022  0.68370  1.0000
  H   H259      1.0  0.87730  0.64237  0.65782  1.0000
  H   H260      1.0  0.15906  0.63789  0.74448  1.0000
  H   H261      1.0  0.50093  0.47686  0.75248  1.0000
  H   H262      1.0  0.50004  0.52256  0.74782  1.0000
  H   H263      1.0  0.97835  0.99905  0.71838  1.0000
  H   H264      1.0  0.02178  0.99990  0.79245  1.0000
  C   C1        1.0  0.47760  0.56113  0.19383  1.0000
  C   C2        1.0  0.52187  0.56141  0.28901  1.0000
  C   C3        1.0  0.52247  0.44048  0.30002  1.0000
  C   C4        1.0  0.47826  0.44012  0.20503  1.0000
  C   C5        1.0  0.97859  0.06093  0.19314  1.0000
  C   C6        1.0  0.02078  0.06073  0.29096  1.0000
  C   C7        1.0  0.02146  0.94107  0.30756  1.0000
  C   C8        1.0  0.97914  0.94119  0.21179  1.0000
  C   C9        1.0  0.48601  0.58940  0.21140  1.0000
  C   C10       1.0  0.51292  0.58957  0.26639  1.0000
  C   C11       1.0  0.51414  0.41219  0.28293  1.0000
  C   C12       1.0  0.48721  0.41197  0.22854  1.0000
  C   C13       1.0  0.98665  0.08988  0.20856  1.0000
  C   C14       1.0  0.01303  0.08974  0.26612  1.0000
  C   C15       1.0  0.01355  0.91212  0.29129  1.0000
  C   C16       1.0  0.98708  0.91219  0.23492  1.0000
  C   C17       1.0  0.44507  0.52314  0.11785  1.0000
  C   C18       1.0  0.55474  0.52365  0.37328  1.0000
  C   C19       1.0  0.55493  0.47837  0.37755  1.0000
  C   C20       1.0  0.44533  0.47780  0.12092  1.0000
  C   C21       1.0  0.94475  0.02457  0.11327  1.0000
  C   C22       1.0  0.05473  0.02438  0.38297  1.0000
  C   C23       1.0  0.05528  0.97735  0.38835  1.0000
  C   C24       1.0  0.94513  0.97754  0.12036  1.0000
  C   C25       1.0  0.41947  0.51458  0.04169  1.0000
  C   C26       1.0  0.58028  0.51507  0.45236  1.0000
  C   C27       1.0  0.58041  0.48690  0.45481  1.0000
  C   C28       1.0  0.41968  0.48640  0.04328  1.0000
  C   C29       1.0  0.92007  0.01510  0.03790  1.0000
  C   C30       1.0  0.07956  0.01531  0.46128  1.0000
  C   C31       1.0  0.07993  0.98680  0.46409  1.0000
  C   C32       1.0  0.92034  0.98660  0.04166  1.0000
  C   C33       1.0  0.45168  0.55141  0.13962  1.0000
  C   C34       1.0  0.54789  0.55189  0.34542  1.0000
  C   C35       1.0  0.54824  0.45018  0.35584  1.0000
  C   C36       1.0  0.45223  0.44954  0.14824  1.0000
  C   C37       1.0  0.95233  0.05242  0.13592  1.0000
  C   C38       1.0  0.04688  0.05215  0.35208  1.0000
  C   C39       1.0  0.04769  0.94954  0.36495  1.0000
  C   C40       1.0  0.95293  0.94978  0.15205  1.0000
  C   C41       1.0  0.57044  0.57272  0.36600  1.0000
  C   C42       1.0  0.57056  0.42913  0.38297  1.0000
  C   C43       1.0  0.06895  0.07334  0.37570  1.0000
  C   C44       1.0  0.06986  0.92831  0.39193  1.0000
  C   C45       1.0  0.56618  0.59705  0.45618  1.0000
  C   C46       1.0  0.56574  0.40513  0.48209  1.0000
  C   C47       1.0  0.06372  0.09742  0.46673  1.0000
  C   C48       1.0  0.06506  0.90432  0.49123  1.0000
  C   C49       1.0  0.58723  0.61705  0.46203  1.0000
  C   C50       1.0  0.58603  0.38440  0.49283  1.0000
  C   C51       1.0  0.08400  0.11811  0.47388  1.0000
  C   C52       1.0  0.08541  0.88364  0.50197  1.0000
  C   C53       1.0  0.61372  0.61346  0.37763  1.0000
  C   C54       1.0  0.61228  0.38683  0.40313  1.0000
  C   C55       1.0  0.11067  0.11539  0.39022  1.0000
  C   C56       1.0  0.11162  0.88601  0.41180  1.0000
  C   C57       1.0  0.61835  0.58883  0.29103  1.0000
  C   C58       1.0  0.61779  0.41151  0.31186  1.0000
  C   C59       1.0  0.11636  0.09094  0.30382  1.0000
  C   C60       1.0  0.11719  0.91074  0.32116  1.0000
  C   C61       1.0  0.59726  0.56893  0.28609  1.0000
  C   C62       1.0  0.59739  0.43215  0.30170  1.0000
  C   C63       1.0  0.09600  0.07035  0.29737  1.0000
  C   C64       1.0  0.09673  0.93131  0.31088  1.0000
  C   C65       1.0  0.63665  0.65377  0.46111  1.0000
  C   C66       1.0  0.36491  0.65686  0.03834  1.0000
  C   C67       1.0  0.36654  0.34407  0.05236  1.0000
  C   C68       1.0  0.62961  0.34162  0.44847  1.0000
  C   C69       1.0  0.13185  0.15692  0.46966  1.0000
  C   C70       1.0  0.86671  0.15899  0.03958  1.0000
  C   C71       1.0  0.86657  0.84615  0.03769  1.0000
  C   C72       1.0  0.12786  0.84020  0.44327  1.0000
  C   C73       1.0  0.65794  0.67540  0.42987  1.0000
  C   C74       1.0  0.34342  0.67787  0.07555  1.0000
  C   C75       1.0  0.34545  0.32235  0.08835  1.0000
  C   C76       1.0  0.65117  0.32039  0.42180  1.0000
  C   C77       1.0  0.65461  0.70127  0.50472  1.0000
  C   C78       1.0  0.34650  0.70486  0.00803  1.0000
  C   C79       1.0  0.34889  0.29602  0.01941  1.0000
  C   C80       1.0  0.64527  0.29265  0.46852  1.0000
  C   C81       1.0  0.67336  0.72288  0.46396  1.0000
  C   C82       1.0  0.32717  0.72560  0.05111  1.0000
  C   C83       1.0  0.32978  0.27475  0.06141  1.0000
  C   C84       1.0  0.66460  0.27160  0.43175  1.0000
  C   C85       1.0  0.69664  0.71884  0.35292  1.0000
  C   C86       1.0  0.30355  0.71968  0.15795  1.0000
  C   C87       1.0  0.30596  0.27960  0.16716  1.0000
  C   C88       1.0  0.69091  0.27770  0.34966  1.0000
  C   C89       1.0  0.70090  0.69233  0.28511  1.0000
  C   C90       1.0  0.29985  0.69224  0.22075  1.0000
  C   C91       1.0  0.30189  0.30642  0.23103  1.0000
  C   C92       1.0  0.69714  0.30586  0.30869  1.0000
  C   C93       1.0  0.68159  0.67120  0.32097  1.0000
  C   C94       1.0  0.31970  0.67191  0.18221  1.0000
  C   C95       1.0  0.32164  0.32716  0.19488  1.0000
  C   C96       1.0  0.67765  0.32664  0.34244  1.0000
  C   C97       1.0  0.71718  0.74033  0.30258  1.0000
  C   C98       1.0  0.28210  0.74010  0.20668  1.0000
  C   C99       1.0  0.28450  0.25876  0.21487  1.0000
  C   C100      1.0  0.71240  0.25730  0.30154  1.0000
  C   C101      1.0  0.21276  0.24285  0.30376  1.0000
  C   C102      1.0  0.78436  0.24229  0.21123  1.0000
  C   C103      1.0  0.78783  0.75801  0.19542  1.0000
  C   C104      1.0  0.21013  0.75551  0.29469  1.0000
  C   C105      1.0  0.73636  0.78128  0.18214  1.0000
  C   C106      1.0  0.26109  0.77953  0.32374  1.0000
  C   C107      1.0  0.26337  0.21917  0.34118  1.0000
  C   C108      1.0  0.73423  0.21796  0.18488  1.0000
  C   C109      1.0  0.23387  0.28243  0.17693  1.0000
  C   C110      1.0  0.76319  0.28170  0.32698  1.0000
  C   C111      1.0  0.76843  0.71718  0.31679  1.0000
  C   C112      1.0  0.23179  0.71617  0.17817  1.0000
  C   C113      1.0  0.75871  0.76161  0.21466  1.0000
  C   C114      1.0  0.23936  0.75976  0.28582  1.0000
  C   C115      1.0  0.24187  0.23875  0.29430  1.0000
  C   C116      1.0  0.75534  0.23779  0.22614  1.0000
  C   C117      1.0  0.25539  0.26278  0.22255  1.0000
  C   C118      1.0  0.74160  0.26166  0.29169  1.0000
  C   C119      1.0  0.74627  0.73686  0.28316  1.0000
  C   C120      1.0  0.25301  0.73585  0.22008  1.0000
  C   C121      1.0  0.68322  0.77987  0.23538  1.0000
  C   C122      1.0  0.31426  0.77987  0.28341  1.0000
  C   C123      1.0  0.31672  0.21908  0.30467  1.0000
  C   C124      1.0  0.68100  0.21722  0.21388  1.0000
  C   C125      1.0  0.18051  0.28288  0.21761  1.0000
  C   C126      1.0  0.81639  0.28243  0.28249  1.0000
  C   C127      1.0  0.82179  0.71817  0.26084  1.0000
  C   C128      1.0  0.17859  0.71573  0.20390  1.0000
  C   C129      1.0  0.68055  0.80884  0.30781  1.0000
  C   C130      1.0  0.31719  0.80914  0.20705  1.0000
  C   C131      1.0  0.31972  0.18989  0.23526  1.0000
  C   C132      1.0  0.67676  0.18855  0.29697  1.0000
  C   C133      1.0  0.17831  0.31192  0.29025  1.0000
  C   C134      1.0  0.81887  0.31115  0.19912  1.0000
  C   C135      1.0  0.82364  0.68797  0.20555  1.0000
  C   C136      1.0  0.17381  0.68759  0.29190  1.0000
  C   C137      1.0  0.64952  0.81777  0.32810  1.0000
  C   C138      1.0  0.34809  0.81874  0.19489  1.0000
  C   C139      1.0  0.35046  0.17984  0.23245  1.0000
  C   C140      1.0  0.64703  0.17728  0.27389  1.0000
  C   C141      1.0  0.14771  0.32233  0.30375  1.0000
  C   C142      1.0  0.84948  0.32160  0.18887  1.0000
  C   C143      1.0  0.85430  0.67761  0.19443  1.0000
  C   C144      1.0  0.14410  0.67636  0.26844  1.0000
  C   C145      1.0  0.64610  0.84729  0.39151  1.0000
  C   C146      1.0  0.35121  0.84884  0.13212  1.0000
  C   C147      1.0  0.35376  0.15014  0.17163  1.0000
  C   C148      1.0  0.64317  0.14753  0.34127  1.0000
  C   C149      1.0  0.14556  0.35191  0.36753  1.0000
  C   C150      1.0  0.85204  0.35081  0.11180  1.0000
  C   C151      1.0  0.85621  0.64699  0.14845  1.0000
  C   C152      1.0  0.13937  0.64767  0.34933  1.0000
  C   C153      1.0  0.47770  0.55996  0.69589  1.0000
  C   C154      1.0  0.52207  0.56020  0.78844  1.0000
  C   C155      1.0  0.52311  0.43943  0.80576  1.0000
  C   C156      1.0  0.47887  0.43926  0.71078  1.0000
  C   C157      1.0  0.97862  0.05896  0.69964  1.0000
  C   C158      1.0  0.02103  0.05942  0.79448  1.0000
  C   C159      1.0  0.02154  0.93970  0.81270  1.0000
  C   C160      1.0  0.97918  0.93936  0.71684  1.0000
  C   C161      1.0  0.48624  0.58822  0.71112  1.0000
  C   C162      1.0  0.51327  0.58837  0.76406  1.0000
  C   C163      1.0  0.51451  0.41118  0.79025  1.0000
  C   C164      1.0  0.48759  0.41108  0.73553  1.0000
  C   C165      1.0  0.98628  0.08802  0.71485  1.0000
  C   C166      1.0  0.01278  0.08830  0.77045  1.0000
  C   C167      1.0  0.01379  0.91063  0.79768  1.0000
  C   C168      1.0  0.98731  0.91043  0.74117  1.0000
  C   C169      1.0  0.44513  0.52204  0.62149  1.0000
  C   C170      1.0  0.55527  0.52272  0.87339  1.0000
  C   C171      1.0  0.55572  0.47740  0.87951  1.0000
  C   C172      1.0  0.44569  0.47677  0.62596  1.0000
  C   C173      1.0  0.94464  0.02251  0.62007  1.0000
  C   C174      1.0  0.05530  0.02341  0.88446  1.0000
  C   C175      1.0  0.05544  0.97635  0.89061  1.0000
  C   C176      1.0  0.94485  0.97543  0.62689  1.0000
  C   C177      1.0  0.41961  0.51330  0.54530  1.0000
  C   C178      1.0  0.58099  0.51439  0.95137  1.0000
  C   C179      1.0  0.58128  0.48621  0.95500  1.0000
  C   C180      1.0  0.41997  0.48511  0.54787  1.0000
  C   C181      1.0  0.91971  0.01313  0.54670  1.0000
  C   C182      1.0  0.08026  0.01420  0.96079  1.0000
  C   C183      1.0  0.08035  0.98570  0.96435  1.0000
  C   C184      1.0  0.91984  0.98461  0.55084  1.0000
  C   C185      1.0  0.45176  0.55027  0.64248  1.0000
  C   C186      1.0  0.54808  0.55086  0.84546  1.0000
  C   C187      1.0  0.54909  0.44910  0.85934  1.0000
  C   C188      1.0  0.45287  0.44863  0.65366  1.0000
  C   C189      1.0  0.95239  0.05032  0.64258  1.0000
  C   C190      1.0  0.04740  0.05118  0.85364  1.0000
  C   C191      1.0  0.04786  0.94846  0.86804  1.0000
  C   C192      1.0  0.95286  0.94765  0.65697  1.0000
  C   C193      1.0  0.57001  0.57220  0.86864  1.0000
  C   C194      1.0  0.42944  0.57131  0.61583  1.0000
  C   C195      1.0  0.93096  0.92623  0.63271  1.0000
  C   C196      1.0  0.56461  0.59608  0.96149  1.0000
  C   C197      1.0  0.43421  0.59512  0.51504  1.0000
  C   C198      1.0  0.93613  0.90254  0.53767  1.0000
  C   C199      1.0  0.58480  0.61674  0.97199  1.0000
  C   C200      1.0  0.41394  0.61580  0.50325  1.0000
  C   C201      1.0  0.91572  0.88209  0.52549  1.0000
  C   C202      1.0  0.61162  0.61430  0.88942  1.0000
  C   C203      1.0  0.38777  0.61358  0.59387  1.0000
  C   C204      1.0  0.88894  0.88449  0.60878  1.0000
  C   C205      1.0  0.61737  0.59014  0.80024  1.0000
  C   C206      1.0  0.38228  0.58910  0.68716  1.0000
  C   C207      1.0  0.88343  0.90849  0.69993  1.0000
  C   C208      1.0  0.59707  0.56955  0.79032  1.0000
  C   C209      1.0  0.40267  0.56845  0.69809  1.0000
  C   C210      1.0  0.90391  0.92884  0.71149  1.0000
  C   C211      1.0  0.63200  0.65631  0.96843  1.0000
  C   C212      1.0  0.37081  0.65877  0.54538  1.0000
  C   C213      1.0  0.36999  0.34162  0.55472  1.0000
  C   C214      1.0  0.63558  0.34326  0.95546  1.0000
  C   C215      1.0  0.13250  0.15681  0.96310  1.0000
  C   C216      1.0  0.87310  0.16062  0.54550  1.0000
  C   C217      1.0  0.86839  0.84203  0.53608  1.0000
  C   C218      1.0  0.13413  0.84222  0.95080  1.0000
  C   C219      1.0  0.65374  0.67758  0.94271  1.0000
  C   C220      1.0  0.34957  0.68032  0.57073  1.0000
  C   C221      1.0  0.34834  0.32033  0.58335  1.0000
  C   C222      1.0  0.65725  0.32244  0.91777  1.0000
  C   C223      1.0  0.15592  0.82159  0.91209  1.0000
  C   C224      1.0  0.64873  0.70460  0.99876  1.0000
  C   C225      1.0  0.35572  0.70780  0.51932  1.0000
  C   C226      1.0  0.35357  0.29307  0.53188  1.0000
  C   C227      1.0  0.65420  0.29528  0.98293  1.0000
  C   C228      1.0  0.15258  0.79417  0.97301  1.0000
  C   C229      1.0  0.66799  0.72583  0.95963  1.0000
  C   C230      1.0  0.33673  0.72919  0.55438  1.0000
  C   C231      1.0  0.33417  0.27196  0.57119  1.0000
  C   C232      1.0  0.67375  0.27475  0.93957  1.0000
  C   C233      1.0  0.17213  0.77373  0.92856  1.0000
  C   C234      1.0  0.69338  0.72052  0.86775  1.0000
  C   C235      1.0  0.31053  0.72367  0.63876  1.0000
  C   C236      1.0  0.30839  0.27763  0.65823  1.0000
  C   C237      1.0  0.69757  0.28104  0.83501  1.0000
  C   C238      1.0  0.19609  0.78025  0.82567  1.0000
  C   C239      1.0  0.69916  0.69289  0.82089  1.0000
  C   C240      1.0  0.30406  0.69579  0.68543  1.0000
  C   C241      1.0  0.30264  0.30538  0.70277  1.0000
  C   C242      1.0  0.70121  0.30864  0.77474  1.0000
  C   C243      1.0  0.19998  0.80803  0.76912  1.0000
  C   C244      1.0  0.67957  0.67200  0.85574  1.0000
  C   C245      1.0  0.32322  0.67467  0.65325  1.0000
  C   C246      1.0  0.32241  0.32614  0.66844  1.0000
  C   C247      1.0  0.68117  0.32878  0.81337  1.0000
  C   C248      1.0  0.18005  0.82817  0.80995  1.0000
  C   C249      1.0  0.71420  0.74154  0.81389  1.0000
  C   C250      1.0  0.28935  0.74451  0.68449  1.0000
  C   C251      1.0  0.28694  0.25694  0.70830  1.0000
  C   C252      1.0  0.71909  0.26081  0.78446  1.0000
  C   C253      1.0  0.21498  0.24158  0.79755  1.0000
  C   C254      1.0  0.79093  0.24591  0.68750  1.0000
  C   C255      1.0  0.78537  0.75811  0.70561  1.0000
  C   C256      1.0  0.21754  0.76007  0.77434  1.0000
  C   C257      1.0  0.73420  0.78154  0.68509  1.0000
  C   C258      1.0  0.26804  0.78386  0.80360  1.0000
  C   C259      1.0  0.26534  0.21772  0.83775  1.0000
  C   C260      1.0  0.74009  0.22179  0.66223  1.0000
  C   C261      1.0  0.23638  0.28074  0.66759  1.0000
  C   C262      1.0  0.76944  0.28504  0.80844  1.0000
  C   C263      1.0  0.76548  0.71827  0.83615  1.0000
  C   C264      1.0  0.23846  0.72076  0.65493  1.0000
  C   C265      1.0  0.75619  0.76196  0.72336  1.0000
  C   C266      1.0  0.24664  0.76439  0.76032  1.0000
  C   C267      1.0  0.24409  0.23731  0.78844  1.0000
  C   C268      1.0  0.76176  0.24155  0.69986  1.0000
  C   C269      1.0  0.25779  0.26107  0.71480  1.0000
  C   C270      1.0  0.74818  0.26520  0.76929  1.0000
  C   C271      1.0  0.74341  0.73781  0.79772  1.0000
  C   C272      1.0  0.26014  0.74054  0.69287  1.0000
  C   C273      1.0  0.68106  0.78131  0.73237  1.0000
  C   C274      1.0  0.32134  0.78417  0.77226  1.0000
  C   C275      1.0  0.31870  0.21721  0.80456  1.0000
  C   C276      1.0  0.68708  0.22095  0.70531  1.0000
  C   C277      1.0  0.18316  0.28188  0.71100  1.0000
  C   C278      1.0  0.82265  0.28640  0.76634  1.0000
  C   C279      1.0  0.81842  0.71844  0.78844  1.0000
  C   C280      1.0  0.18529  0.72068  0.69303  1.0000
  C   C281      1.0  0.67813  0.80969  0.81253  1.0000
  C   C282      1.0  0.32571  0.81271  0.68765  1.0000
  C   C283      1.0  0.32229  0.18840  0.73072  1.0000
  C   C284      1.0  0.68469  0.19141  0.77817  1.0000
  C   C285      1.0  0.18091  0.31059  0.78754  1.0000
  C   C286      1.0  0.82496  0.31542  0.68507  1.0000
  C   C287      1.0  0.82235  0.69110  0.69867  1.0000
  C   C288      1.0  0.18173  0.69125  0.76621  1.0000
  C   C289      1.0  0.64725  0.81931  0.82661  1.0000
  C   C290      1.0  0.35620  0.82299  0.69628  1.0000
  C   C291      1.0  0.35306  0.17859  0.73343  1.0000
  C   C292      1.0  0.65444  0.18024  0.77599  1.0000
  C   C293      1.0  0.15012  0.32050  0.80005  1.0000
  C   C294      1.0  0.85554  0.32597  0.67600  1.0000
  C   C295      1.0  0.85200  0.67915  0.71870  1.0000
  C   C296      1.0  0.15068  0.68205  0.77394  1.0000
  C   C297      1.0  0.64406  0.84840  0.89667  1.0000
  C   C298      1.0  0.36016  0.85239  0.62381  1.0000
  C   C299      1.0  0.35699  0.14905  0.67132  1.0000
  C   C300      1.0  0.65237  0.14991  0.83566  1.0000
  C   C301      1.0  0.14694  0.34977  0.86724  1.0000
  C   C302      1.0  0.85812  0.35571  0.60681  1.0000
  C   C303      1.0  0.85589  0.65053  0.64354  1.0000
  C   C304      1.0  0.14720  0.65159  0.82907  1.0000
  N   N1        1.0  0.63543  0.63319  0.36306  1.0000
  N   N2        1.0  0.36469  0.63359  0.12020  1.0000
  N   N3        1.0  0.36750  0.36525  0.14590  1.0000
  N   N4        1.0  0.63352  0.36664  0.39108  1.0000
  N   N5        1.0  0.13167  0.13579  0.37529  1.0000
  N   N6        1.0  0.86697  0.13612  0.12535  1.0000
  N   N7        1.0  0.86722  0.86682  0.13533  1.0000
  N   N8        1.0  0.13281  0.86577  0.39948  1.0000
  N   N9        1.0  0.71103  0.76729  0.24999  1.0000
  N   N10       1.0  0.28708  0.76677  0.26007  1.0000
  N   N11       1.0  0.28954  0.23215  0.27725  1.0000
  N   N12       1.0  0.70777  0.23061  0.24469  1.0000
  N   N13       1.0  0.20768  0.26941  0.24082  1.0000
  N   N14       1.0  0.78924  0.26898  0.26384  1.0000
  N   N15       1.0  0.79392  0.73092  0.24748  1.0000
  N   N16       1.0  0.20536  0.72893  0.23719  1.0000
  N   N17       1.0  0.49989  0.54499  0.24292  1.0000
  N   N18       1.0  0.50020  0.45658  0.25058  1.0000
  N   N19       1.0  0.99960  0.04358  0.24463  1.0000
  N   N20       1.0  0.00031  0.95839  0.25748  1.0000
  N   N21       1.0  0.46090  0.50047  0.16149  1.0000
  N   N22       1.0  0.53921  0.50102  0.33254  1.0000
  N   N23       1.0  0.95958  0.00118  0.15806  1.0000
  N   N24       1.0  0.04038  0.00074  0.34423  1.0000
  N   N25       1.0  0.63311  0.63428  0.88097  1.0000
  N   N26       1.0  0.36665  0.63390  0.60458  1.0000
  N   N27       1.0  0.36801  0.36481  0.63108  1.0000
  N   N28       1.0  0.63584  0.36671  0.87537  1.0000
  N   N29       1.0  0.13237  0.13517  0.87263  1.0000
  N   N30       1.0  0.86905  0.13590  0.60729  1.0000
  N   N31       1.0  0.86729  0.86468  0.61797  1.0000
  N   N32       1.0  0.13540  0.86669  0.88256  1.0000
  N   N33       1.0  0.70849  0.76813  0.75274  1.0000
  N   N34       1.0  0.29434  0.77105  0.74256  1.0000
  N   N35       1.0  0.29172  0.23047  0.77438  1.0000
  N   N36       1.0  0.71414  0.23423  0.72923  1.0000
  N   N37       1.0  0.21014  0.26806  0.73261  1.0000
  N   N38       1.0  0.79574  0.27247  0.74543  1.0000
  N   N39       1.0  0.79108  0.73158  0.76690  1.0000
  N   N40       1.0  0.21251  0.73344  0.72000  1.0000
  N   N41       1.0  0.49997  0.54379  0.74459  1.0000
  N   N42       1.0  0.50095  0.45563  0.75558  1.0000
  N   N43       1.0  0.99998  0.04193  0.74978  1.0000
  N   N44       1.0  0.00021  0.95679  0.76231  1.0000
  N   N45       1.0  0.46109  0.49954  0.66603  1.0000
  N   N46       1.0  0.53983  0.49991  0.83420  1.0000
  N   N47       1.0  0.95948  0.99903  0.66354  1.0000
  N   N48       1.0  0.04062  0.99985  0.84758  1.0000
  O   O1        1.0  0.73576  0.80406  0.11103  1.0000
  O   O2        1.0  0.26101  0.80167  0.39612  1.0000
  O   O3        1.0  0.26288  0.19716  0.42092  1.0000
  O   O4        1.0  0.73529  0.19590  0.11179  1.0000
  O   O5        1.0  0.23431  0.30451  0.09797  1.0000
  O   O6        1.0  0.76282  0.30411  0.39664  1.0000
  O   O7        1.0  0.76861  0.69460  0.39007  1.0000
  O   O8        1.0  0.23270  0.69414  0.10468  1.0000
  O   O9        1.0  0.73414  0.80410  0.61097  1.0000
  O   O10       1.0  0.26735  0.80564  0.87957  1.0000
  O   O11       1.0  0.26446  0.19587  0.91908  1.0000
  O   O12       1.0  0.74026  0.19990  0.58724  1.0000
  O   O13       1.0  0.23707  0.30276  0.58771  1.0000
  O   O14       1.0  0.76866  0.30714  0.88120  1.0000
  O   O15       1.0  0.76576  0.69589  0.91210  1.0000
  O   O16       1.0  0.23869  0.69871  0.58145  1.0000
  C   C305      1.0  0.93374  0.89713  0.03023  1.0000
  C   C306      1.0  0.93171  0.92336  0.09925  1.0000
  C  Sn1       1.0  0.90719  0.93106  0.18993  1.0000
  C  Sn2       1.0  0.88432  0.91211  0.21176  1.0000
  C   C307      1.0  0.88658  0.88592  0.14231  1.0000
  C   C308      1.0  0.91120  0.87843  0.05174  1.0000
  H   H265      1.0  0.94326  0.88740  0.96023  1.0000
  O  Te1       1.0  0.90551  0.95735  0.25800  1.0000
  O  Te2       1.0  0.85958  0.91928  0.30188  1.0000
  H   H266      1.0  0.90324  0.85418  0.99841  1.0000
  Mg  Mg1       1.0  0.86738  0.95750  0.37061  1.0000
  C   C309      1.0  0.88536  0.08346  0.70149  1.0000
  C   C310      1.0  0.88802  0.10932  0.62130  1.0000
  C  Sn3       1.0  0.91243  0.11582  0.52431  1.0000
  C  Sn4       1.0  0.93455  0.09602  0.50749  1.0000
  C   C311      1.0  0.93168  0.07021  0.58812  1.0000
  C   C312      1.0  0.90717  0.06392  0.68491  1.0000
  H   H267      1.0  0.86639  0.07859  0.77631  1.0000
  O  Te3       1.0  0.91475  0.14175  0.44509  1.0000
  O  Te4       1.0  0.95917  0.10197  0.41126  1.0000
  H   H268      1.0  0.90511  0.04389  0.74690  1.0000
  Mg  Mg2       1.0  0.95241  0.14015  0.32761  1.0000
  C   C313      1.0  0.80345  0.81390  0.69875  1.0000
  C   C314      1.0  0.80309  0.78641  0.64835  1.0000
  C  Sn5       1.0  0.82610  0.77560  0.55628  1.0000
  C  Sn6       1.0  0.84990  0.79268  0.51412  1.0000
  C   C315      1.0  0.85006  0.82015  0.56522  1.0000
  C   C316      1.0  0.82691  0.83076  0.65726  1.0000
  H   H269      1.0  0.78554  0.82211  0.77003  1.0000
  O  Te5       1.0  0.82539  0.74809  0.50688  1.0000
  O  Te6       1.0  0.87319  0.78239  0.42226  1.0000
  H   H270      1.0  0.82720  0.85204  0.69636  1.0000
  Mg  Mg3       1.0  0.86223  0.74358  0.38353  1.0000
  C   C317      1.0  0.59087  0.38988  0.00095  1.0000
  C   C318      1.0  0.60734  0.38444  0.91213  1.0000
  C  Sn7       1.0  0.61671  0.40665  0.81058  1.0000
  C  Sn8       1.0  0.59969  0.43077  0.79801  1.0000
  C   C319      1.0  0.57372  0.43208  0.88746  1.0000
  C   C320      1.0  0.56453  0.40974  0.98867  1.0000
  H   H271      1.0  0.58377  0.37260  0.07933  1.0000
  O  Te7       1.0  0.64275  0.40479  0.72264  1.0000
  O  Te8       1.0  0.60856  0.45327  0.69747  1.0000
  H   H272      1.0  0.55394  0.41485  0.05751  1.0000
  Mg  Mg4       1.0  0.64566  0.44087  0.60195  1.0000
  C   C321      1.0  0.39556  0.42934  0.21674  1.0000
  C   C322      1.0  0.42356  0.42934  0.15304  1.0000
  C  Sn9       1.0  0.43405  0.40691  0.06304  1.0000
  C  Sn10      1.0  0.41611  0.38409  0.03649  1.0000
  C   C323      1.0  0.38813  0.38430  0.10063  1.0000
  C   C324      1.0  0.37786  0.40685  0.19055  1.0000
  H   H273      1.0  0.38761  0.44679  0.28624  1.0000
  O  Te9       1.0  0.46208  0.40724  0.00032  1.0000
  O  Te10      1.0  0.41650  0.35748  0.94694  1.0000
  H   H274      1.0  0.35617  0.40685  0.23977  1.0000
  Mg  Mg5       1.0  0.45629  0.36758  0.88635  1.0000
  C   C325      1.0  0.81474  0.82560  0.19403  1.0000
  C   C326      1.0  0.84064  0.82537  0.10338  1.0000
  C  Sn11      1.0  0.84964  0.80150  0.02197  1.0000
  C  Sn12      1.0  0.83235  0.77744  0.03169  1.0000
  C   C327      1.0  0.80648  0.77789  0.12261  1.0000
  C   C328      1.0  0.79767  0.80189  0.20363  1.0000
  H   H275      1.0  0.80792  0.84417  0.25665  1.0000
  O  Te11      1.0  0.86603  0.79769  0.93199  1.0000
  O  Te12      1.0  0.83130  0.74938  0.95148  1.0000
  H   H276      1.0  0.77762  0.80206  0.27372  1.0000
  Mg  Mg6       1.0  0.86840  0.75976  0.84418  1.0000
  C   C329      1.0  0.39533  0.57122  0.21447  1.0000
  C   C330      1.0  0.42152  0.56981  0.12748  1.0000
  C  Sn13      1.0  0.43090  0.59194  0.02536  1.0000
  C  Sn14      1.0  0.41370  0.61590  0.01034  1.0000
  C   C331      1.0  0.38755  0.61711  0.09797  1.0000
  C   C332      1.0  0.37836  0.59485  0.19977  1.0000
  H   H277      1.0  0.38823  0.55400  0.29331  1.0000
  O  Te13      1.0  0.44758  0.58626  0.93928  1.0000
  O  Te14      1.0  0.41303  0.63439  0.90919  1.0000
  H   H278      1.0  0.35809  0.59595  0.26719  1.0000
  Mg  Mg7       1.0  0.45041  0.62217  0.81683  1.0000
  C   C333      1.0  0.16189  0.22427  0.96643  1.0000
  C   C334      1.0  0.18800  0.22276  0.87873  1.0000
  C  Sn15      1.0  0.19691  0.19787  0.80837  1.0000
  C  Sn16      1.0  0.17929  0.17409  0.82631  1.0000
  C   C335      1.0  0.15320  0.17582  0.91418  1.0000
  C   C336      1.0  0.14450  0.20083  0.98412  1.0000
  H   H279      1.0  0.16469  0.24755  0.02047  1.0000
  O  Te15      1.0  0.22307  0.19671  0.72121  1.0000
  O  Te16      1.0  0.18767  0.14896  0.75720  1.0000
  H   H280      1.0  0.13381  0.20593  0.05192  1.0000
  Mg  Mg8       1.0  0.22517  0.15776  0.64963  1.0000
  C   C337      1.0  0.18372  0.17624  0.31081  1.0000
  C   C338      1.0  0.15946  0.17650  0.41609  1.0000
  C  Sn17      1.0  0.15062  0.20105  0.49074  1.0000
  C  Sn18      1.0  0.16640  0.22577  0.45913  1.0000
  C   C339      1.0  0.19064  0.22530  0.35353  1.0000
  C   C340      1.0  0.19930  0.20062  0.27952  1.0000
  H   H281      1.0  0.19042  0.15715  0.25347  1.0000
  O  Te17      1.0  0.12633  0.20093  0.59564  1.0000
  O  Te18      1.0  0.15803  0.25059  0.53207  1.0000
  H   H282      1.0  0.21808  0.20043  0.19794  1.0000
  Mg  Mg9       1.0  0.12346  0.23993  0.66586  1.0000
  C   C341      1.0  0.06645  0.10349  0.98317  1.0000
  C   C342      1.0  0.06733  0.07916  0.89338  1.0000
  C  Sn19      1.0  0.09186  0.07197  0.80116  1.0000
  C  Sn20      1.0  0.11593  0.08950  0.79908  1.0000
  C   C343      1.0  0.11484  0.11378  0.88942  1.0000
  C   C344      1.0  0.09018  0.12078  0.98124  1.0000
  H   H283      1.0  0.05692  0.11282  0.05429  1.0000
  O  Te19      1.0  0.09238  0.04759  0.71211  1.0000
  O  Te20      1.0  0.14072  0.08280  0.70801  1.0000
  H   H284      1.0  0.09905  0.14354  0.05083  1.0000
  Mg  Mg10      1.0  0.13106  0.04739  0.60673  1.0000
  C   C345      1.0  0.15535  0.77197  0.44351  1.0000
  C   C346      1.0  0.18147  0.77347  0.35543  1.0000
  C  Sn21      1.0  0.19243  0.79914  0.30074  1.0000
  C  Sn22      1.0  0.17692  0.82373  0.33508  1.0000
  C   C347      1.0  0.15082  0.82201  0.42338  1.0000
  C   C348      1.0  0.14004  0.79622  0.47749  1.0000
  H   H285      1.0  0.14701  0.75202  0.48545  1.0000
  O  Te21      1.0  0.21855  0.80027  0.21285  1.0000
  O  Te22      1.0  0.18739  0.84966  0.28193  1.0000
  H   H286      1.0  0.11983  0.79506  0.54577  1.0000
  Mg  Mg11      1.0  0.22395  0.84048  0.16648  1.0000
  C   C349      1.0  0.39658  0.42762  0.72339  1.0000
  C   C350      1.0  0.42439  0.42832  0.65663  1.0000
  C  Sn23      1.0  0.43462  0.40696  0.55703  1.0000
  C  Sn24      1.0  0.41662  0.38451  0.52385  1.0000
  C   C351      1.0  0.38883  0.38402  0.59113  1.0000
  C   C352      1.0  0.37881  0.40550  0.69067  1.0000
  H   H287      1.0  0.38883  0.44425  0.80033  1.0000
  O  Te23      1.0  0.46246  0.40797  0.49137  1.0000
  O  Te24      1.0  0.42629  0.36290  0.42467  1.0000
  H   H288      1.0  0.35727  0.40497  0.74226  1.0000
  Mg  Mg12      1.0  0.46589  0.37362  0.36353  1.0000
  C   C353      1.0  0.11547  0.91786  0.79289  1.0000
  C   C354      1.0  0.11606  0.89357  0.88930  1.0000
  C  Sn25      1.0  0.09244  0.88571  0.98950  1.0000
  C  Sn26      1.0  0.06779  0.90252  0.99295  1.0000
  C   C355      1.0  0.06741  0.92678  0.89596  1.0000
  C   C356      1.0  0.09117  0.93444  0.79618  1.0000
  H   H289      1.0  0.13385  0.92378  0.71562  1.0000
  O  Te25      1.0  0.10293  0.86531  0.08509  1.0000
  O  Te26      1.0  0.05342  0.89909  0.09194  1.0000
  H   H290      1.0  0.09070  0.95324  0.72147  1.0000
  Mg  Mg13      1.0  0.06501  0.86403  0.20012  1.0000
  C   C357      1.0  0.80779  0.18975  0.68702  1.0000
  C   C358      1.0  0.81040  0.21830  0.65643  1.0000
  C  Sn27      1.0  0.83449  0.22903  0.57127  1.0000
  C  Sn28      1.0  0.85635  0.21079  0.51581  1.0000
  C   C359      1.0  0.85353  0.18226  0.54693  1.0000
  C   C360      1.0  0.82933  0.17174  0.63231  1.0000
  H   H291      1.0  0.78907  0.18161  0.75300  1.0000
  O  Te27      1.0  0.83676  0.25761  0.54180  1.0000
  O  Te28      1.0  0.88065  0.22095  0.43035  1.0000
  H   H292      1.0  0.82732  0.14964  0.65588  1.0000
  Mg  Mg14      1.0  0.87394  0.26149  0.42022  1.0000
  C   C361      1.0  0.84560  0.21429  0.00045  1.0000
  C   C362      1.0  0.84745  0.18712  0.06235  1.0000
  C  Sn29      1.0  0.82675  0.17675  0.17584  1.0000
  C  Sn30      1.0  0.80379  0.19395  0.22805  1.0000
  C   C363      1.0  0.80212  0.22109  0.16531  1.0000
  C   C364      1.0  0.82296  0.23126  0.05184  1.0000
  H   H293      1.0  0.85218  0.21822  0.91259  1.0000
  O  Te29      1.0  0.82893  0.14956  0.23649  1.0000
  O  Te30      1.0  0.78280  0.18411  0.34130  1.0000
  H   H294      1.0  0.82151  0.25229  0.00385  1.0000
  Mg  Mg15      1.0  0.79508  0.14560  0.38865  1.0000
  C   C365      1.0  0.88458  0.08327  0.20247  1.0000
  C   C366      1.0  0.88634  0.10973  0.12911  1.0000
  C  Sn31      1.0  0.91047  0.11763  0.03334  1.0000
  C  Sn32      1.0  0.93320  0.09864  0.01078  1.0000
  C   C367      1.0  0.93122  0.07221  0.08460  1.0000
  C   C368      1.0  0.90698  0.06453  0.18023  1.0000
  H   H295      1.0  0.86582  0.07732  0.27639  1.0000
  O  Te31      1.0  0.90235  0.14022  0.96098  1.0000
  O  Te32      1.0  0.94801  0.10206  0.91563  1.0000
  H   H296      1.0  0.90561  0.04403  0.23693  1.0000
  Mg  Mg16      1.0  0.93997  0.14056  0.84228  1.0000
