data_image0
_chemical_formula_structural       H240C312N16O24C2Sn2C2HTe2HMgC2Sn2C2HTe2HMgC2Sn2C2HTe2HMgC2Sn2C2HTe2HMgC2Sn2C2HTe2HMgC2Sn2C2HTe2HMgC2Sn2C2HTe2HMgC2Sn2C2HTe2HMgC2Sn2C2HTe2HMgC2Sn2C2HTe2HMgC2Sn2C2HTe2HMgC2Sn2C2HTe2HMg
_chemical_formula_sum              "H264 C360 N16 O24 Sn24 Te24 Mg12"
_cell_length_a       51.3976
_cell_length_b       40.3255
_cell_length_c       16.4801
_cell_angle_alpha    138.721
_cell_angle_beta     90.6143
_cell_angle_gamma    89.6901

_symmetry_space_group_name_H-M    'P1'
_space_group_IT_number       1

loop_
  _space_group_symop_operation_xyz
  'x, y, z'

loop_
  _atom_site_type_symbol
  _atom_site_label
  _atom_site_symmetry_multiplicity
  _atom_site_fract_x
  _atom_site_fract_y
  _atom_site_fract_z
  _atom_site_occupancy
  H   H1        1.0  0.99586  0.04758  0.47395  1.0000
  H   H2        1.0  0.97447  0.08778  0.10586  1.0000
  H   H3        1.0  0.94901  0.03169  0.40839  1.0000
  H   H4        1.0  0.94219  0.01878  0.48844  1.0000
  H   H5        1.0  0.98414  0.82635  0.42836  1.0000
  H   H6        1.0  0.01140  0.84893  0.41488  1.0000
  H   H7        1.0  0.97494  0.88923  0.42962  1.0000
  H   H8        1.0  0.98854  0.93246  0.07200  1.0000
  H   H9        1.0  0.42929  0.41061  0.06044  1.0000
  H   H10       1.0  0.43353  0.42022  0.18480  1.0000
  H   H11       1.0  0.47902  0.40006  0.03448  1.0000
  H   H12       1.0  0.46197  0.35135  0.99608  1.0000
  H   H13       1.0  0.46073  0.65022  0.25896  1.0000
  H   H14       1.0  0.45613  0.59467  0.21439  1.0000
  H   H15       1.0  0.47681  0.59666  0.04394  1.0000
  H   H16       1.0  0.44331  0.58910  0.05411  1.0000
  H   H17       1.0  0.14927  0.02715  0.22090  1.0000
  H   H18       1.0  0.12001  0.05256  0.15643  1.0000
  H   H19       1.0  0.54048  0.37479  0.24484  1.0000
  H   H20       1.0  0.57129  0.34601  0.29871  1.0000
  H   H21       1.0  0.61020  0.36064  0.41069  1.0000
  H   H22       1.0  0.64835  0.50616  0.16717  1.0000
  H   H23       1.0  0.61696  0.53473  0.11800  1.0000
  H   H24       1.0  0.57460  0.66534  0.16057  1.0000
  H   H25       1.0  0.54058  0.63490  0.19963  1.0000
  H   H26       1.0  0.61362  0.64893  0.05053  1.0000
  H   H27       1.0  0.65128  0.50731  0.31533  1.0000
  H   H28       1.0  0.61985  0.47984  0.36540  1.0000
  H   H29       1.0  0.43799  0.52434  0.17486  1.0000
  H   H30       1.0  0.40488  0.59243  0.29012  1.0000
  H   H31       1.0  0.37052  0.64237  0.44561  1.0000
  H   H32       1.0  0.35483  0.62323  0.17907  1.0000
  H   H33       1.0  0.38800  0.55702  0.06710  1.0000
  H   H34       1.0  0.44769  0.42392  0.45901  1.0000
  H   H35       1.0  0.47808  0.47030  0.98026  1.0000
  H   H36       1.0  0.40424  0.38685  0.40373  1.0000
  H   H37       1.0  0.34557  0.41457  0.27218  1.0000
  H   H38       1.0  0.37567  0.47023  0.30142  1.0000
  H   H39       1.0  0.49261  0.54493  0.15666  1.0000
  H   H40       1.0  0.49466  0.59857  0.31967  1.0000
  H   H41       1.0  0.53663  0.55937  0.25212  1.0000
  H   H42       1.0  0.54036  0.61398  0.29130  1.0000
  H   H43       1.0  0.51194  0.43377  0.15545  1.0000
  H   H44       1.0  0.52157  0.38172  0.12107  1.0000
  H   H45       1.0  0.51031  0.43427  0.34264  1.0000
  H   H46       1.0  0.50372  0.48586  0.37182  1.0000
  H   H47       1.0  0.31138  0.64042  0.14854  1.0000
  H   H48       1.0  0.27691  0.70269  0.23506  1.0000
  H   H49       1.0  0.32948  0.78651  0.23902  1.0000
  H   H50       1.0  0.36405  0.72440  0.15306  1.0000
  H   H51       1.0  0.28612  0.80782  0.27366  1.0000
  H   H52       1.0  0.26253  0.76233  0.21398  1.0000
  H   H53       1.0  0.25762  0.79592  0.41319  1.0000
  H   H54       1.0  0.29650  0.29117  0.38719  1.0000
  H   H55       1.0  0.28212  0.26811  0.25429  1.0000
  H   H56       1.0  0.33218  0.22717  0.25734  1.0000
  H   H57       1.0  0.69568  0.67991  0.32860  1.0000
  H   H58       1.0  0.72024  0.63848  0.28389  1.0000
  H   H59       1.0  0.67488  0.61125  0.11806  1.0000
  H   H60       1.0  0.70933  0.32072  0.07783  1.0000
  H   H61       1.0  0.73227  0.36193  0.10937  1.0000
  H   H62       1.0  0.71898  0.43132  0.32768  1.0000
  H   H63       1.0  0.27435  0.91428  0.51994  1.0000
  H   H64       1.0  0.24447  0.95953  0.51197  1.0000
  H   H65       1.0  0.18587  0.84566  0.33935  1.0000
  H   H66       1.0  0.21613  0.79983  0.34653  1.0000
  H   H67       1.0  0.70646  0.33236  0.29727  1.0000
  H   H68       1.0  0.74052  0.28703  0.29229  1.0000
  H   H69       1.0  0.79989  0.36089  0.28922  1.0000
  H   H70       1.0  0.76574  0.40540  0.29152  1.0000
  H   H71       1.0  0.32761  0.18314  0.29656  1.0000
  H   H72       1.0  0.30124  0.13661  0.31002  1.0000
  H   H73       1.0  0.23501  0.14477  0.16269  1.0000
  H   H74       1.0  0.26152  0.19075  0.14773  1.0000
  H   H75       1.0  0.17571  0.92155  0.39932  1.0000
  H   H76       1.0  0.19849  0.85500  0.19839  1.0000
  H   H77       1.0  0.22237  0.89865  0.24769  1.0000
  H   H78       1.0  0.23040  0.10177  0.20749  1.0000
  H   H79       1.0  0.23865  0.18927  0.43134  1.0000
  H   H80       1.0  0.26076  0.16014  0.44592  1.0000
  H   H81       1.0  0.78508  0.26810  0.28503  1.0000
  H   H82       1.0  0.80594  0.26087  0.09838  1.0000
  H   H83       1.0  0.78013  0.22514  0.07237  1.0000
  H   H84       1.0  0.77757  0.68194  0.00844  1.0000
  H   H85       1.0  0.78210  0.74157  0.23765  1.0000
  H   H86       1.0  0.76040  0.78307  0.26442  1.0000
  H   H87       1.0  0.05304  0.88292  0.24053  1.0000
  H   H88       1.0  0.08239  0.85929  0.30971  1.0000
  H   H89       1.0  0.11677  0.88194  0.45092  1.0000
  H   H90       1.0  0.01330  0.97755  0.31430  1.0000
  H   H91       1.0  0.02059  0.93352  0.30970  1.0000
  H   H92       1.0  0.04669  0.88541  0.10660  1.0000
  H   H93       1.0  0.02917  0.92433  0.10969  1.0000
  H   H94       1.0  0.18654  0.97465  0.15311  1.0000
  H   H95       1.0  0.21485  0.94996  0.22293  1.0000
  H   H96       1.0  0.15058  0.87121  0.18599  1.0000
  H   H97       1.0  0.12251  0.89468  0.11255  1.0000
  H   H98       1.0  0.92576  0.03337  0.15377  1.0000
  H   H99       1.0  0.88957  0.08572  0.29447  1.0000
  H   H100      1.0  0.85638  0.06318  0.48900  1.0000
  H   H101      1.0  0.88503  0.99087  0.37962  1.0000
  H   H102      1.0  0.78989  0.15840  0.05730  1.0000
  H   H103      1.0  0.85092  0.23818  0.08203  1.0000
  H   H104      1.0  0.08622  0.18136  0.18905  1.0000
  H   H105      1.0  0.04878  0.15189  0.21328  1.0000
  H   H106      1.0  0.12957  0.16648  0.10379  1.0000
  H   H107      1.0  0.16989  0.02380  0.38681  1.0000
  H   H108      1.0  0.13142  0.99354  0.40066  1.0000
  H   H109      1.0  0.03244  0.12129  0.29072  1.0000
  H   H110      1.0  0.01678  0.11355  0.18032  1.0000
  H   H111      1.0  0.93565  0.84599  0.28399  1.0000
  H   H112      1.0  0.97053  0.90323  0.33415  1.0000
  H   H113      1.0  0.88995  0.82171  0.23955  1.0000
  H   H114      1.0  0.84032  0.85808  0.10288  1.0000
  H   H115      1.0  0.87590  0.90595  0.12829  1.0000
  H   H116      1.0  0.98866  0.09187  0.25779  1.0000
  H   H117      1.0  0.01038  0.04243  0.19488  1.0000
  H   H118      1.0  0.95539  0.96261  0.04562  1.0000
  H   H119      1.0  0.99729  0.04819  0.98346  1.0000
  H   H120      1.0  0.97392  0.08795  0.59950  1.0000
  H   H121      1.0  0.95090  0.03502  0.91333  1.0000
  H   H122      1.0  0.94234  0.01834  0.98357  1.0000
  H   H123      1.0  0.98357  0.82466  0.93797  1.0000
  H   H124      1.0  0.01076  0.84506  0.91820  1.0000
  H   H125      1.0  0.97374  0.88276  0.92392  1.0000
  H   H126      1.0  0.98933  0.93669  0.57964  1.0000
  H   H127      1.0  0.42752  0.41056  0.57155  1.0000
  H   H128      1.0  0.43454  0.41696  0.68922  1.0000
  H   H129      1.0  0.47673  0.39841  0.52968  1.0000
  H   H130      1.0  0.46041  0.34899  0.49071  1.0000
  H   H131      1.0  0.45930  0.64726  0.78261  1.0000
  H   H132      1.0  0.45694  0.58443  0.70233  1.0000
  H   H133      1.0  0.47393  0.61126  0.57937  1.0000
  H   H134      1.0  0.44081  0.59963  0.58411  1.0000
  H   H135      1.0  0.15060  0.03025  0.72026  1.0000
  H   H136      1.0  0.12189  0.05407  0.65074  1.0000
  H   H137      1.0  0.54565  0.36747  0.71408  1.0000
  H   H138      1.0  0.57611  0.34082  0.77451  1.0000
  H   H139      1.0  0.61248  0.35989  0.90275  1.0000
  H   H140      1.0  0.65052  0.50239  0.65793  1.0000
  H   H141      1.0  0.61880  0.53356  0.61669  1.0000
  H   H142      1.0  0.57510  0.66908  0.67861  1.0000
  H   H143      1.0  0.54222  0.64062  0.72542  1.0000
  H   H144      1.0  0.61332  0.65129  0.56177  1.0000
  H   H145      1.0  0.65378  0.50752  0.81550  1.0000
  H   H146      1.0  0.62201  0.47919  0.86217  1.0000
  H   H147      1.0  0.43714  0.52317  0.68408  1.0000
  H   H148      1.0  0.40413  0.59142  0.80155  1.0000
  H   H149      1.0  0.37060  0.64133  0.95821  1.0000
  H   H150      1.0  0.35295  0.62221  0.66082  1.0000
  H   H151      1.0  0.38671  0.55702  0.55271  1.0000
  H   H152      1.0  0.44732  0.41067  0.93570  1.0000
  H   H153      1.0  0.47739  0.48464  0.50216  1.0000
  H   H154      1.0  0.40332  0.37742  0.88791  1.0000
  H   H155      1.0  0.34381  0.41771  0.78870  1.0000
  H   H156      1.0  0.37435  0.47392  0.82269  1.0000
  H   H157      1.0  0.49386  0.54968  0.69248  1.0000
  H   H158      1.0  0.49564  0.61060  0.84892  1.0000
  H   H159      1.0  0.53755  0.56945  0.78580  1.0000
  H   H160      1.0  0.54073  0.62165  0.81492  1.0000
  H   H161      1.0  0.50984  0.43440  0.64966  1.0000
  H   H162      1.0  0.52255  0.38028  0.59995  1.0000
  H   H163      1.0  0.51377  0.42466  0.81697  1.0000
  H   H164      1.0  0.50552  0.47955  0.86194  1.0000
  H   H165      1.0  0.30921  0.63403  0.60744  1.0000
  H   H166      1.0  0.27488  0.69734  0.69914  1.0000
  H   H167      1.0  0.33034  0.79219  0.75326  1.0000
  H   H168      1.0  0.36458  0.72847  0.65990  1.0000
  H   H169      1.0  0.33414  0.33148  0.66018  1.0000
  H   H170      1.0  0.30292  0.27814  0.63661  1.0000
  H   H171      1.0  0.33466  0.33171  0.96145  1.0000
  H   H172      1.0  0.36577  0.38546  0.98597  1.0000
  H   H173      1.0  0.62557  0.36767  0.55586  1.0000
  H   H174      1.0  0.65937  0.33565  0.59125  1.0000
  H   H175      1.0  0.71768  0.41938  0.61720  1.0000
  H   H176      1.0  0.68399  0.45038  0.57837  1.0000
  H   H177      1.0  0.28697  0.81436  0.78676  1.0000
  H   H178      1.0  0.26335  0.76667  0.70711  1.0000
  H   H179      1.0  0.25496  0.78783  0.88809  1.0000
  H   H180      1.0  0.29227  0.28624  0.87346  1.0000
  H   H181      1.0  0.28002  0.26120  0.73535  1.0000
  H   H182      1.0  0.32937  0.22413  0.75464  1.0000
  H   H183      1.0  0.69807  0.67997  0.82735  1.0000
  H   H184      1.0  0.72197  0.63684  0.77791  1.0000
  H   H185      1.0  0.67630  0.61390  0.61885  1.0000
  H   H186      1.0  0.70638  0.31956  0.58729  1.0000
  H   H187      1.0  0.73043  0.35318  0.59520  1.0000
  H   H188      1.0  0.72176  0.43040  0.81758  1.0000
  H   H189      1.0  0.27198  0.91401  0.03101  1.0000
  H   H190      1.0  0.24324  0.96209  0.02886  1.0000
  H   H191      1.0  0.18535  0.84459  0.82614  1.0000
  H   H192      1.0  0.21457  0.79572  0.82693  1.0000
  H   H193      1.0  0.70878  0.33870  0.81356  1.0000
  H   H194      1.0  0.74297  0.29311  0.80727  1.0000
  H   H195      1.0  0.80174  0.35875  0.77647  1.0000
  H   H196      1.0  0.76746  0.40305  0.77896  1.0000
  H   H197      1.0  0.17553  0.92255  0.89865  1.0000
  H   H198      1.0  0.20194  0.86141  0.70454  1.0000
  H   H199      1.0  0.22366  0.91016  0.76813  1.0000
  H   H200      1.0  0.22811  0.09906  0.70699  1.0000
  H   H201      1.0  0.23474  0.18905  0.92667  1.0000
  H   H202      1.0  0.25717  0.16426  0.95260  1.0000
  H   H203      1.0  0.78773  0.27088  0.78841  1.0000
  H   H204      1.0  0.80597  0.25948  0.59180  1.0000
  H   H205      1.0  0.78033  0.22597  0.57540  1.0000
  H   H206      1.0  0.78034  0.68353  0.51253  1.0000
  H   H207      1.0  0.78249  0.74399  0.74238  1.0000
  H   H208      1.0  0.76067  0.78393  0.76357  1.0000
  H   H209      1.0  0.05453  0.87979  0.72916  1.0000
  H   H210      1.0  0.08419  0.85485  0.79454  1.0000
  H   H211      1.0  0.11792  0.87687  0.93627  1.0000
  H   H212      1.0  0.01289  0.97313  0.80888  1.0000
  H   H213      1.0  0.02163  0.92738  0.79696  1.0000
  H   H214      1.0  0.04754  0.88366  0.59892  1.0000
  H   H215      1.0  0.03060  0.92499  0.60884  1.0000
  H   H216      1.0  0.18693  0.97792  0.65474  1.0000
  H   H217      1.0  0.21569  0.95521  0.72792  1.0000
  H   H218      1.0  0.15173  0.87981  0.70475  1.0000
  H   H219      1.0  0.12298  0.90212  0.63030  1.0000
  H   H220      1.0  0.92548  0.03642  0.65831  1.0000
  H   H221      1.0  0.88969  0.08887  0.80249  1.0000
  H   H222      1.0  0.85760  0.06436  0.99420  1.0000
  H   H223      1.0  0.88638  0.99189  0.88183  1.0000
  H   H224      1.0  0.82052  0.09010  0.96565  1.0000
  H   H225      1.0  0.88172  0.17027  0.99206  1.0000
  H   H226      1.0  0.08898  0.18111  0.67851  1.0000
  H   H227      1.0  0.05073  0.15358  0.70481  1.0000
  H   H228      1.0  0.13220  0.16458  0.59361  1.0000
  H   H229      1.0  0.16856  0.02665  0.89548  1.0000
  H   H230      1.0  0.13079  0.99508  0.90889  1.0000
  H   H231      1.0  0.03300  0.12584  0.78449  1.0000
  H   H232      1.0  0.01743  0.11503  0.66913  1.0000
  H   H233      1.0  0.93692  0.85041  0.79224  1.0000
  H   H234      1.0  0.97172  0.90671  0.83771  1.0000
  H   H235      1.0  0.89121  0.82589  0.74868  1.0000
  H   H236      1.0  0.84154  0.85776  0.60171  1.0000
  H   H237      1.0  0.87679  0.90550  0.62534  1.0000
  H   H238      1.0  0.98957  0.09654  0.75491  1.0000
  H   H239      1.0  0.01165  0.04856  0.69810  1.0000
  H   H240      1.0  0.95497  0.96503  0.54558  1.0000
  C   C1        1.0  0.59363  0.41510  0.42837  1.0000
  C   C2        1.0  0.59602  0.46466  0.48573  1.0000
  C   C3        1.0  0.57782  0.48122  0.45627  1.0000
  C   C4        1.0  0.55825  0.44863  0.36969  1.0000
  C   C5        1.0  0.55581  0.39968  0.31276  1.0000
  C   C6        1.0  0.57306  0.38362  0.34244  1.0000
  C   C7        1.0  0.61187  0.39882  0.45774  1.0000
  C   C8        1.0  0.63254  0.43081  0.03938  1.0000
  C   C9        1.0  0.63342  0.48031  0.09828  1.0000
  C   C10       1.0  0.61589  0.49641  0.07007  1.0000
  C   C11       1.0  0.57887  0.53013  0.00514  1.0000
  C   C12       1.0  0.59760  0.54914  0.49215  1.0000
  C   C13       1.0  0.59692  0.59642  0.03851  1.0000
  C   C14       1.0  0.57595  0.62806  0.11894  1.0000
  C   C15       1.0  0.55722  0.61167  0.14202  1.0000
  C   C16       1.0  0.55882  0.56270  0.08552  1.0000
  C   C17       1.0  0.61556  0.61170  0.00886  1.0000
  C   C18       1.0  0.63415  0.58133  0.43260  1.0000
  C   C19       1.0  0.63609  0.53315  0.38131  1.0000
  C   C20       1.0  0.61826  0.51736  0.40876  1.0000
  C   C21       1.0  0.39351  0.58627  0.40489  1.0000
  C   C22       1.0  0.39822  0.56078  0.43362  1.0000
  C   C23       1.0  0.41779  0.52265  0.36849  1.0000
  C   C24       1.0  0.43142  0.51022  0.27562  1.0000
  C   C25       1.0  0.42684  0.53579  0.24842  1.0000
  C   C26       1.0  0.40840  0.57300  0.31165  1.0000
  C   C27       1.0  0.37419  0.62399  0.46985  1.0000
  C   C28       1.0  0.36014  0.63731  0.07643  1.0000
  C   C29       1.0  0.36544  0.61220  0.10488  1.0000
  C   C30       1.0  0.38414  0.57512  0.04235  1.0000
  C   C31       1.0  0.42461  0.49768  0.40056  1.0000
  C   C32       1.0  0.40723  0.46316  0.37576  1.0000
  C   C33       1.0  0.41541  0.43757  0.40131  1.0000
  C   C34       1.0  0.44122  0.44465  0.44373  1.0000
  C   C35       1.0  0.45767  0.47815  0.46798  1.0000
  C   C36       1.0  0.44918  0.50577  0.45002  1.0000
  C   C37       1.0  0.39768  0.40571  0.38327  1.0000
  C   C38       1.0  0.37257  0.39751  0.33915  1.0000
  C   C39       1.0  0.36517  0.42069  0.30718  1.0000
  C   C40       1.0  0.38192  0.45225  0.32447  1.0000
  C   C41       1.0  0.50162  0.58227  0.23228  1.0000
  C   C42       1.0  0.53092  0.57698  0.22656  1.0000
  C   C43       1.0  0.50880  0.41492  0.17937  1.0000
  C   C44       1.0  0.51515  0.45135  0.31550  1.0000
  C   C45       1.0  0.34012  0.67692  0.14094  1.0000
  C   C46       1.0  0.31552  0.67263  0.16926  1.0000
  C   C47       1.0  0.29601  0.70774  0.21746  1.0000
  C   C48       1.0  0.30045  0.74841  0.23985  1.0000
  C   C49       1.0  0.32542  0.75431  0.21852  1.0000
  C   C50       1.0  0.34487  0.71918  0.16958  1.0000
  C   C51       1.0  0.27908  0.78371  0.27858  1.0000
  C   C52       1.0  0.26746  0.81909  0.40991  1.0000
  C   C53       1.0  0.28805  0.84707  0.50337  1.0000
  C   C54       1.0  0.24768  0.85288  0.42972  1.0000
  C   C55       1.0  0.30078  0.27360  0.29627  1.0000
  C   C56       1.0  0.31275  0.22098  0.21875  1.0000
  C   C57       1.0  0.31669  0.19289  0.09202  1.0000
  C   C58       1.0  0.29641  0.19077  0.22255  1.0000
  C   C59       1.0  0.69958  0.64033  0.27029  1.0000
  C   C60       1.0  0.69561  0.61018  0.13399  1.0000
  C   C61       1.0  0.70264  0.55759  0.04973  1.0000
  C   C62       1.0  0.71280  0.35998  0.13238  1.0000
  C   C63       1.0  0.71374  0.39233  0.27179  1.0000
  C   C64       1.0  0.68772  0.39414  0.30899  1.0000
  C   C65       1.0  0.73378  0.37038  0.28966  1.0000
  C   C66       1.0  0.25506  0.89868  0.47925  1.0000
  C   C67       1.0  0.23808  0.92424  0.47394  1.0000
  C   C68       1.0  0.21347  0.90445  0.41953  1.0000
  C   C69       1.0  0.20542  0.86027  0.37724  1.0000
  C   C70       1.0  0.22240  0.83467  0.38205  1.0000
  C   C71       1.0  0.72692  0.33807  0.29363  1.0000
  C   C72       1.0  0.74617  0.31283  0.29169  1.0000
  C   C73       1.0  0.77250  0.31959  0.28627  1.0000
  C   C74       1.0  0.77942  0.35413  0.28942  1.0000
  C   C75       1.0  0.76024  0.37924  0.29117  1.0000
  C   C76       1.0  0.30732  0.17477  0.26686  1.0000
  C   C77       1.0  0.29242  0.14816  0.27388  1.0000
  C   C78       1.0  0.26623  0.13760  0.23759  1.0000
  C   C79       1.0  0.25532  0.15310  0.19205  1.0000
  C   C80       1.0  0.27033  0.17929  0.18406  1.0000
  C   C81       1.0  0.19640  0.92569  0.39091  1.0000
  C   C82       1.0  0.20167  0.89453  0.25458  1.0000
  C   C83       1.0  0.20082  0.97905  0.47346  1.0000
  C   C84       1.0  0.24894  0.11401  0.25802  1.0000
  C   C85       1.0  0.24290  0.15405  0.39871  1.0000
  C   C86       1.0  0.26030  0.06913  0.21215  1.0000
  C   C87       1.0  0.79291  0.28523  0.26101  1.0000
  C   C88       1.0  0.79895  0.24249  0.11995  1.0000
  C   C89       1.0  0.81668  0.31226  0.33358  1.0000
  C   C90       1.0  0.76203  0.70814  0.07401  1.0000
  C   C91       1.0  0.77534  0.75446  0.20147  1.0000
  C   C92       1.0  0.75198  0.72337  0.52373  1.0000
  C   C93       1.0  0.10128  0.93215  0.45175  1.0000
  C   C94       1.0  0.10221  0.97910  0.00570  1.0000
  C   C95       1.0  0.08568  0.99489  0.46659  1.0000
  C   C96       1.0  0.06778  0.95943  0.37221  1.0000
  C   C97       1.0  0.06671  0.91035  0.31554  1.0000
  C   C98       1.0  0.08319  0.89712  0.35421  1.0000
  C   C99       1.0  0.11798  0.91963  0.49467  1.0000
  C   C100      1.0  0.13573  0.94970  0.08203  1.0000
  C   C101      1.0  0.13623  0.99960  0.14261  1.0000
  C   C102      1.0  0.11978  0.01393  0.10673  1.0000
  C   C103      1.0  0.02733  0.94878  0.27979  1.0000
  C   C104      1.0  0.02871  0.90743  0.13955  1.0000
  C   C105      1.0  0.15266  0.93537  0.12464  1.0000
  C   C106      1.0  0.17869  0.95140  0.15862  1.0000
  C   C107      1.0  0.19461  0.93778  0.19897  1.0000
  C   C108      1.0  0.18481  0.90860  0.20893  1.0000
  C   C109      1.0  0.15870  0.89306  0.17654  1.0000
  C   C110      1.0  0.14289  0.90595  0.13436  1.0000
  C   C111      1.0  0.90565  0.02443  0.25124  1.0000
  C   C112      1.0  0.90428  0.99575  0.27231  1.0000
  C   C113      1.0  0.92161  0.95466  0.20942  1.0000
  C   C114      1.0  0.93955  0.94275  0.12709  1.0000
  C   C115      1.0  0.94122  0.97166  0.10830  1.0000
  C   C116      1.0  0.92451  0.01138  0.16887  1.0000
  C   C117      1.0  0.88866  0.06560  0.31489  1.0000
  C   C118      1.0  0.87075  0.07992  0.39925  1.0000
  C   C119      1.0  0.86985  0.05179  0.42104  1.0000
  C   C120      1.0  0.88604  0.01137  0.36036  1.0000
  C   C121      1.0  0.81008  0.16130  0.04380  1.0000
  C   C122      1.0  0.81803  0.20287  0.07420  1.0000
  C   C123      1.0  0.84417  0.20565  0.05620  1.0000
  C   C124      1.0  0.86153  0.16724  0.00497  1.0000
  C   C125      1.0  0.08563  0.04498  0.02820  1.0000
  C   C126      1.0  0.10772  0.06256  0.01708  1.0000
  C   C127      1.0  0.10795  0.11227  0.07439  1.0000
  C   C128      1.0  0.08609  0.14345  0.14415  1.0000
  C   C129      1.0  0.06503  0.12677  0.15742  1.0000
  C   C130      1.0  0.06470  0.07742  0.09915  1.0000
  C   C131      1.0  0.12988  0.12887  0.06071  1.0000
  C   C132      1.0  0.15377  0.09631  0.48673  1.0000
  C   C133      1.0  0.15313  0.04825  0.43620  1.0000
  C   C134      1.0  0.13144  0.03113  0.44433  1.0000
  C   C135      1.0  0.00266  0.06412  0.18326  1.0000
  C   C136      1.0  0.02446  0.09324  0.19612  1.0000
  C   C137      1.0  0.92345  0.92628  0.23475  1.0000
  C   C138      1.0  0.90344  0.89369  0.20418  1.0000
  C   C139      1.0  0.90758  0.86639  0.22830  1.0000
  C   C140      1.0  0.93236  0.86839  0.27076  1.0000
  C   C141      1.0  0.95146  0.89967  0.29899  1.0000
  C   C142      1.0  0.94639  0.93059  0.28802  1.0000
  C   C143      1.0  0.88670  0.83929  0.21303  1.0000
  C   C144      1.0  0.86222  0.83761  0.17359  1.0000
  C   C145      1.0  0.85898  0.86132  0.14023  1.0000
  C   C146      1.0  0.87892  0.88803  0.15395  1.0000
  C   C147      1.0  0.98107  0.04851  0.02727  1.0000
  C   C148      1.0  0.95731  0.01707  0.43865  1.0000
  C   C149      1.0  0.99545  0.85758  0.98292  1.0000
  C   C150      1.0  0.97843  0.89610  0.01024  1.0000
  C   C151      1.0  0.44305  0.42318  0.13115  1.0000
  C   C152      1.0  0.46747  0.39143  0.07278  1.0000
  C   C153      1.0  0.46773  0.61148  0.19646  1.0000
  C   C154      1.0  0.46328  0.58312  0.06516  1.0000
  C   C155      1.0  0.59542  0.41311  0.91708  1.0000
  C   C156      1.0  0.59665  0.46323  0.97707  1.0000
  C   C157      1.0  0.57879  0.47823  0.94263  1.0000
  C   C158      1.0  0.56053  0.44380  0.85001  1.0000
  C   C159      1.0  0.55958  0.39399  0.78886  1.0000
  C   C160      1.0  0.57660  0.37921  0.82233  1.0000
  C   C161      1.0  0.61329  0.39841  0.95148  1.0000
  C   C162      1.0  0.63241  0.42923  0.53867  1.0000
  C   C163      1.0  0.63454  0.47810  0.59449  1.0000
  C   C164      1.0  0.61679  0.49568  0.57086  1.0000
  C   C165      1.0  0.57847  0.53328  0.51969  1.0000
  C   C166      1.0  0.59856  0.54692  0.98187  1.0000
  C   C167      1.0  0.59646  0.59901  0.55056  1.0000
  C   C168      1.0  0.57633  0.63163  0.63600  1.0000
  C   C169      1.0  0.55815  0.61618  0.66340  1.0000
  C   C170      1.0  0.55944  0.56713  0.60661  1.0000
  C   C171      1.0  0.61478  0.61368  0.51834  1.0000
  C   C172      1.0  0.63560  0.58029  0.92689  1.0000
  C   C173      1.0  0.63808  0.53271  0.87840  1.0000
  C   C174      1.0  0.62003  0.51634  0.90369  1.0000
  C   C175      1.0  0.39344  0.58510  0.91647  1.0000
  C   C176      1.0  0.39850  0.55958  0.94486  1.0000
  C   C177      1.0  0.41787  0.52090  0.87773  1.0000
  C   C178      1.0  0.43114  0.50858  0.78425  1.0000
  C   C179      1.0  0.42627  0.53444  0.75798  1.0000
  C   C180      1.0  0.40789  0.57178  0.82232  1.0000
  C   C181      1.0  0.37438  0.62328  0.98322  1.0000
  C   C182      1.0  0.35942  0.63698  0.56051  1.0000
  C   C183      1.0  0.36420  0.61169  0.58862  1.0000
  C   C184      1.0  0.38317  0.57530  0.52833  1.0000
  C   C185      1.0  0.42468  0.49470  0.90663  1.0000
  C   C186      1.0  0.40663  0.46072  0.88151  1.0000
  C   C187      1.0  0.41469  0.43131  0.89628  1.0000
  C   C188      1.0  0.44095  0.43417  0.92855  1.0000
  C   C189      1.0  0.45798  0.46722  0.95395  1.0000
  C   C190      1.0  0.44977  0.49881  0.94746  1.0000
  C   C191      1.0  0.39661  0.39934  0.87627  1.0000
  C   C192      1.0  0.37110  0.39448  0.83994  1.0000
  C   C193      1.0  0.36368  0.42140  0.81830  1.0000
  C   C194      1.0  0.38079  0.45325  0.83805  1.0000
  C   C195      1.0  0.50234  0.58755  0.75501  1.0000
  C   C196      1.0  0.53181  0.58440  0.75340  1.0000
  C   C197      1.0  0.50911  0.41220  0.66506  1.0000
  C   C198      1.0  0.51710  0.44500  0.79747  1.0000
  C   C199      1.0  0.65226  0.41107  0.56329  1.0000
  C   C200      1.0  0.33929  0.67627  0.62498  1.0000
  C   C201      1.0  0.35232  0.36243  0.82472  1.0000
  C   C202      1.0  0.31394  0.66895  0.64065  1.0000
  C   C203      1.0  0.29461  0.70473  0.69228  1.0000
  C   C204      1.0  0.30003  0.74919  0.73147  1.0000
  C   C205      1.0  0.32561  0.75745  0.72095  1.0000
  C   C206      1.0  0.34487  0.72150  0.66781  1.0000
  C   C207      1.0  0.33412  0.33213  0.72738  1.0000
  C   C208      1.0  0.31652  0.30198  0.71396  1.0000
  C   C209      1.0  0.31635  0.30141  0.79796  1.0000
  C   C210      1.0  0.33453  0.33155  0.89507  1.0000
  C   C211      1.0  0.35221  0.36154  0.90847  1.0000
  C   C212      1.0  0.64583  0.37826  0.56668  1.0000
  C   C213      1.0  0.66490  0.36020  0.58660  1.0000
  C   C214      1.0  0.69105  0.37444  0.60438  1.0000
  C   C215      1.0  0.69749  0.40781  0.60319  1.0000
  C   C216      1.0  0.67848  0.42580  0.58287  1.0000
  C   C217      1.0  0.27902  0.78612  0.77644  1.0000
  C   C218      1.0  0.26528  0.81517  0.89999  1.0000
  C   C219      1.0  0.28409  0.84103  0.00000  1.0000
  C   C220      1.0  0.24570  0.85055  0.92512  1.0000
  C   C221      1.0  0.29795  0.26811  0.78314  1.0000
  C   C222      1.0  0.31031  0.21653  0.71187  1.0000
  C   C223      1.0  0.31541  0.18683  0.58458  1.0000
  C   C224      1.0  0.70134  0.64002  0.76705  1.0000
  C   C225      1.0  0.69694  0.61117  0.63213  1.0000
  C   C226      1.0  0.70284  0.55789  0.54468  1.0000
  C   C227      1.0  0.71146  0.35668  0.63110  1.0000
  C   C228      1.0  0.71539  0.39348  0.77255  1.0000
  C   C229      1.0  0.69020  0.40162  0.82466  1.0000
  C   C230      1.0  0.73572  0.37220  0.79124  1.0000
  C   C231      1.0  0.25309  0.89819  0.98495  1.0000
  C   C232      1.0  0.23671  0.92549  0.98324  1.0000
  C   C233      1.0  0.21266  0.90558  0.92230  1.0000
  C   C234      1.0  0.20448  0.85944  0.86975  1.0000
  C   C235      1.0  0.22088  0.83212  0.87086  1.0000
  C   C236      1.0  0.72911  0.34236  0.80311  1.0000
  C   C237      1.0  0.74845  0.31703  0.80053  1.0000
  C   C238      1.0  0.77462  0.32143  0.78698  1.0000
  C   C239      1.0  0.78135  0.35373  0.78274  1.0000
  C   C240      1.0  0.76209  0.37877  0.78468  1.0000
  C   C241      1.0  0.19631  0.92887  0.89751  1.0000
  C   C242      1.0  0.20321  0.90190  0.76640  1.0000
  C   C243      1.0  0.19981  0.98308  0.98810  1.0000
  C   C244      1.0  0.24630  0.11318  0.76088  1.0000
  C   C245      1.0  0.23949  0.15553  0.90103  1.0000
  C   C246      1.0  0.25809  0.07023  0.72307  1.0000
  C   C247      1.0  0.79500  0.28673  0.76036  1.0000
  C   C248      1.0  0.79958  0.24260  0.61804  1.0000
  C   C249      1.0  0.81932  0.31316  0.82741  1.0000
  C   C250      1.0  0.76418  0.70890  0.57406  1.0000
  C   C251      1.0  0.77619  0.75625  0.70424  1.0000
  C   C252      1.0  0.74919  0.72430  0.02874  1.0000
  C   C253      1.0  0.10180  0.92858  0.94345  1.0000
  C   C254      1.0  0.10260  0.98163  0.50805  1.0000
  C   C255      1.0  0.08511  0.99318  0.96669  1.0000
  C   C256      1.0  0.06787  0.95740  0.86897  1.0000
  C   C257      1.0  0.06768  0.90734  0.80673  1.0000
  C   C258      1.0  0.08435  0.89336  0.84303  1.0000
  C   C259      1.0  0.11859  0.91526  0.98406  1.0000
  C   C260      1.0  0.13582  0.95386  0.58937  1.0000
  C   C261      1.0  0.13708  0.00273  0.64426  1.0000
  C   C262      1.0  0.12086  0.01626  0.60585  1.0000
  C   C263      1.0  0.02773  0.94528  0.77314  1.0000
  C   C264      1.0  0.02969  0.90620  0.63369  1.0000
  C   C265      1.0  0.15298  0.94050  0.63375  1.0000
  C   C266      1.0  0.17914  0.95595  0.66429  1.0000
  C   C267      1.0  0.19538  0.94341  0.70648  1.0000
  C   C268      1.0  0.18588  0.91555  0.72079  1.0000
  C   C269      1.0  0.15965  0.90057  0.69174  1.0000
  C   C270      1.0  0.14346  0.91265  0.64855  1.0000
  C   C271      1.0  0.90600  0.02671  0.75537  1.0000
  C   C272      1.0  0.90492  0.99731  0.77442  1.0000
  C   C273      1.0  0.92218  0.95585  0.70874  1.0000
  C   C274      1.0  0.93990  0.94455  0.62658  1.0000
  C   C275      1.0  0.94111  0.97391  0.60899  1.0000
  C   C276      1.0  0.92445  0.01393  0.67204  1.0000
  C   C277      1.0  0.88904  0.06813  0.82126  1.0000
  C   C278      1.0  0.87135  0.08191  0.90558  1.0000
  C   C279      1.0  0.87082  0.05325  0.92592  1.0000
  C   C280      1.0  0.88706  0.01268  0.86332  1.0000
  C   C281      1.0  0.85341  0.12446  0.96960  1.0000
  C   C282      1.0  0.82743  0.12282  0.99273  1.0000
  C   C283      1.0  0.08674  0.04578  0.52333  1.0000
  C   C284      1.0  0.10909  0.06190  0.50939  1.0000
  C   C285      1.0  0.10990  0.11132  0.56521  1.0000
  C   C286      1.0  0.08833  0.14347  0.63512  1.0000
  C   C287      1.0  0.06685  0.12792  0.64952  1.0000
  C   C288      1.0  0.06596  0.07895  0.59329  1.0000
  C   C289      1.0  0.13217  0.12703  0.55084  1.0000
  C   C290      1.0  0.15163  0.09873  0.99616  1.0000
  C   C291      1.0  0.15164  0.05059  0.94514  1.0000
  C   C292      1.0  0.13031  0.03266  0.95258  1.0000
  C   C293      1.0  0.00364  0.06836  0.68153  1.0000
  C   C294      1.0  0.02518  0.09645  0.68969  1.0000
  C   C295      1.0  0.92438  0.92724  0.73328  1.0000
  C   C296      1.0  0.90447  0.89495  0.70457  1.0000
  C   C297      1.0  0.90876  0.86882  0.73189  1.0000
  C   C298      1.0  0.93359  0.87163  0.77559  1.0000
  C   C299      1.0  0.95267  0.90237  0.80117  1.0000
  C   C300      1.0  0.94747  0.93193  0.78629  1.0000
  C   C301      1.0  0.88790  0.84235  0.71925  1.0000
  C   C302      1.0  0.86339  0.83977  0.67845  1.0000
  C   C303      1.0  0.86011  0.86194  0.64099  1.0000
  C   C304      1.0  0.87993  0.88841  0.65315  1.0000
  C   C305      1.0  0.98056  0.04864  0.52225  1.0000
  C   C306      1.0  0.95823  0.01824  0.93926  1.0000
  C   C307      1.0  0.99614  0.85974  0.47780  1.0000
  C   C308      1.0  0.97930  0.90010  0.51276  1.0000
  C   C309      1.0  0.44260  0.42129  0.63617  1.0000
  C   C310      1.0  0.46653  0.38867  0.56798  1.0000
  C   C311      1.0  0.46704  0.60896  0.70404  1.0000
  C   C312      1.0  0.46119  0.59166  0.58597  1.0000
  N   N1        1.0  0.29923  0.86153  0.07948  1.0000
  N   N2        1.0  0.31929  0.17097  0.99102  1.0000
  N   N3        1.0  0.66637  0.39327  0.33064  1.0000
  N   N4        1.0  0.70903  0.51611  0.47702  1.0000
  N   N5        1.0  0.20280  0.02601  0.05573  1.0000
  N   N6        1.0  0.26924  0.03366  0.17802  1.0000
  N   N7        1.0  0.83589  0.33384  0.38927  1.0000
  N   N8        1.0  0.74223  0.73634  0.48683  1.0000
  N   N9        1.0  0.30480  0.86905  0.57659  1.0000
  N   N10       1.0  0.31902  0.16331  0.48279  1.0000
  N   N11       1.0  0.66914  0.40585  0.85702  1.0000
  N   N12       1.0  0.71004  0.51668  0.98502  1.0000
  N   N13       1.0  0.20455  0.02120  0.53513  1.0000
  N   N14       1.0  0.26743  0.03625  0.69479  1.0000
  N   N15       1.0  0.83883  0.33458  0.87921  1.0000
  N   N16       1.0  0.73901  0.73912  0.99707  1.0000
  O   O1        1.0  0.45078  0.47447  0.20886  1.0000
  O   O2        1.0  0.49473  0.61408  0.22363  1.0000
  O   O3        1.0  0.53990  0.54445  0.10279  1.0000
  O   O4        1.0  0.46681  0.53880  0.47707  1.0000
  O   O5        1.0  0.48203  0.40072  0.16279  1.0000
  O   O6        1.0  0.54210  0.46603  0.34076  1.0000
  O   O7        1.0  0.05202  0.97409  0.33575  1.0000
  O   O8        1.0  0.95497  0.90173  0.06648  1.0000
  O   O9        1.0  0.04424  0.05868  0.10878  1.0000
  O   O10       1.0  0.96547  0.96548  0.33354  1.0000
  O   O11       1.0  0.00635  0.87559  0.09080  1.0000
  O   O12       1.0  0.98949  0.02834  0.06667  1.0000
  O   O13       1.0  0.45053  0.47279  0.71627  1.0000
  O   O14       1.0  0.49463  0.60880  0.71794  1.0000
  O   O15       1.0  0.54160  0.54983  0.63018  1.0000
  O   O16       1.0  0.46882  0.53002  0.97527  1.0000
  O   O17       1.0  0.48314  0.39494  0.64895  1.0000
  O   O18       1.0  0.54408  0.45957  0.81758  1.0000
  O   O19       1.0  0.05179  0.97255  0.83454  1.0000
  O   O20       1.0  0.95563  0.90374  0.56476  1.0000
  O   O21       1.0  0.04513  0.06144  0.60477  1.0000
  O   O22       1.0  0.96625  0.96699  0.83004  1.0000
  O   O23       1.0  0.00717  0.87433  0.58108  1.0000
  O   O24       1.0  0.99062  0.03064  0.56509  1.0000
  C   C313      1.0  0.80760  0.83369  0.20282  1.0000
  C   C314      1.0  0.83401  0.82175  0.18638  1.0000
  C  Sn1       1.0  0.84238  0.78258  0.16456  1.0000
  C  Sn2       1.0  0.82392  0.75490  0.15911  1.0000
  C   C315      1.0  0.79754  0.76712  0.17559  1.0000
  C   C316      1.0  0.78938  0.80640  0.19741  1.0000
  H   H241      1.0  0.80128  0.86407  0.21964  1.0000
  O  Te1       1.0  0.86885  0.77116  0.14839  1.0000
  O  Te2       1.0  0.83175  0.71555  0.13739  1.0000
  H   H242      1.0  0.76892  0.81561  0.21006  1.0000
  Mg  Mg1       1.0  0.86996  0.71425  0.12119  1.0000
  C   C317      1.0  0.79753  0.82650  0.71612  1.0000
  C   C318      1.0  0.79683  0.78565  0.69425  1.0000
  C  Sn3       1.0  0.81975  0.76065  0.66968  1.0000
  C  Sn4       1.0  0.84379  0.77695  0.66705  1.0000
  C   C319      1.0  0.84428  0.81788  0.68914  1.0000
  C   C320      1.0  0.82123  0.84261  0.71359  1.0000
  H   H243      1.0  0.77969  0.84566  0.73511  1.0000
  O  Te3       1.0  0.81870  0.71989  0.64799  1.0000
  O  Te4       1.0  0.86699  0.75265  0.64277  1.0000
  H   H244      1.0  0.82178  0.87426  0.73060  1.0000
  Mg  Mg2       1.0  0.85554  0.69896  0.61899  1.0000
  C   C321      1.0  0.24881  0.15684  0.68216  1.0000
  C   C322      1.0  0.25628  0.13612  0.71862  1.0000
  C  Sn5       1.0  0.28164  0.14277  0.76037  1.0000
  C  Sn6       1.0  0.29982  0.17072  0.76565  1.0000
  C   C323      1.0  0.29216  0.19133  0.72904  1.0000
  C   C324      1.0  0.26673  0.18443  0.68737  1.0000
  H   H245      1.0  0.22913  0.15153  0.64998  1.0000
  O  Te5       1.0  0.28878  0.12180  0.79641  1.0000
  O  Te6       1.0  0.32529  0.17796  0.80704  1.0000
  H   H246      1.0  0.26095  0.20050  0.65922  1.0000
  Mg  Mg3       1.0  0.32574  0.14199  0.84610  1.0000
  C   C325      1.0  0.71267  0.69191  0.61299  1.0000
  C   C326      1.0  0.73946  0.68738  0.59329  1.0000
  C  Sn7       1.0  0.75384  0.65278  0.57530  1.0000
  C  Sn8       1.0  0.74111  0.62221  0.57708  1.0000
  C   C327      1.0  0.71429  0.62701  0.59678  1.0000
  C   C328      1.0  0.70009  0.66176  0.61472  1.0000
  H   H247      1.0  0.70168  0.71878  0.62681  1.0000
  O  Te7       1.0  0.78060  0.64875  0.55578  1.0000
  O  Te8       1.0  0.75501  0.58731  0.55931  1.0000
  H   H248      1.0  0.67934  0.66524  0.62989  1.0000
  Mg  Mg4       1.0  0.79112  0.59572  0.53619  1.0000
  C   C329      1.0  0.65192  0.63864  0.84726  1.0000
  C   C330      1.0  0.67842  0.63019  0.81985  1.0000
  C  Sn9       1.0  0.69248  0.60001  0.81844  1.0000
  C  Sn10      1.0  0.67971  0.57792  0.84497  1.0000
  C   C331      1.0  0.65318  0.58658  0.87219  1.0000
  C   C332      1.0  0.63931  0.61685  0.87339  1.0000
  H   H249      1.0  0.64118  0.66204  0.84812  1.0000
  O  Te9       1.0  0.71895  0.59197  0.79092  1.0000
  O  Te10      1.0  0.69329  0.54758  0.84415  1.0000
  H   H250      1.0  0.61878  0.62336  0.89453  1.0000
  Mg  Mg5       1.0  0.72909  0.54778  0.80132  1.0000
  C   C333      1.0  0.81666  0.12875  0.50551  1.0000
  C   C334      1.0  0.84216  0.12103  0.46563  1.0000
  C  Sn11      1.0  0.85901  0.15744  0.48603  1.0000
  C  Sn12      1.0  0.84580  0.20238  0.54756  1.0000
  C   C335      1.0  0.82030  0.20976  0.58718  1.0000
  C   C336      1.0  0.80362  0.17307  0.56625  1.0000
  H   H251      1.0  0.80705  0.10038  0.48938  1.0000
  O  Te11      1.0  0.88449  0.14911  0.44554  1.0000
  O  Te12      1.0  0.85794  0.23939  0.56920  1.0000
  H   H252      1.0  0.78388  0.17907  0.59721  1.0000
  Mg  Mg6       1.0  0.89278  0.21070  0.49653  1.0000
  C   C337      1.0  0.65966  0.35976  0.07225  1.0000
  C   C338      1.0  0.68639  0.36955  0.08960  1.0000
  C  Sn13      1.0  0.69662  0.40484  0.10060  1.0000
  C  Sn14      1.0  0.67973  0.43075  0.09411  1.0000
  C   C339      1.0  0.65302  0.42071  0.07682  1.0000
  C   C340      1.0  0.64299  0.38532  0.06588  1.0000
  H   H253      1.0  0.65190  0.33240  0.06385  1.0000
  O  Te13      1.0  0.72338  0.41415  0.11786  1.0000
  O  Te14      1.0  0.68944  0.46621  0.10487  1.0000
  H   H254      1.0  0.62229  0.37777  0.05253  1.0000
  Mg  Mg7       1.0  0.72732  0.46585  0.12740  1.0000
  C   C341      1.0  0.71080  0.69175  0.11655  1.0000
  C   C342      1.0  0.73755  0.68714  0.09592  1.0000
  C  Sn15      1.0  0.75201  0.65226  0.07660  1.0000
  C  Sn16      1.0  0.73939  0.62148  0.07798  1.0000
  C   C343      1.0  0.71262  0.62636  0.09861  1.0000
  C   C344      1.0  0.69834  0.66139  0.11788  1.0000
  H   H255      1.0  0.69975  0.71883  0.13139  1.0000
  O  Te15      1.0  0.77872  0.64815  0.05617  1.0000
  O  Te16      1.0  0.75337  0.58630  0.05889  1.0000
  H   H256      1.0  0.67763  0.66493  0.13377  1.0000
  Mg  Mg8       1.0  0.78938  0.59471  0.03490  1.0000
  C   C345      1.0  0.21382  0.10548  0.95017  1.0000
  C   C346      1.0  0.21408  0.13133  0.92390  1.0000
  C  Sn17      1.0  0.19112  0.15150  0.92894  1.0000
  C  Sn18      1.0  0.16749  0.14565  0.96095  1.0000
  C   C347      1.0  0.16744  0.11975  0.98716  1.0000
  C   C348      1.0  0.19053  0.09970  0.98180  1.0000
  H   H257      1.0  0.23169  0.08999  0.94609  1.0000
  O  Te17      1.0  0.19172  0.17721  0.90237  1.0000
  O  Te18      1.0  0.14426  0.16545  0.96673  1.0000
  H   H258      1.0  0.18819  0.77261  0.00223  1.0000
  Mg  Mg9       1.0  0.15501  0.19741  0.92260  1.0000
  C   C349      1.0  0.65036  0.63946  0.35229  1.0000
  C   C350      1.0  0.67677  0.63032  0.32295  1.0000
  C  Sn19      1.0  0.69075  0.59973  0.32036  1.0000
  C  Sn20      1.0  0.67799  0.57792  0.34766  1.0000
  C   C351      1.0  0.65156  0.58726  0.37682  1.0000
  C   C352      1.0  0.63776  0.61794  0.37918  1.0000
  H   H259      1.0  0.63968  0.66318  0.35405  1.0000
  O  Te19      1.0  0.71712  0.59101  0.29091  1.0000
  O  Te20      1.0  0.69150  0.54718  0.34570  1.0000
  H   H260      1.0  0.61731  0.62498  0.40182  1.0000
  Mg  Mg10      1.0  0.72718  0.54648  0.30033  1.0000
  C   C353      1.0  0.34244  0.34698  0.42180  1.0000
  C   C354      1.0  0.32238  0.31559  0.33629  1.0000
  C  Sn21      1.0  0.31874  0.30741  0.23816  1.0000
  C  Sn22      1.0  0.33552  0.33115  0.22563  1.0000
  C   C355      1.0  0.35554  0.36247  0.31163  1.0000
  C   C356      1.0  0.35901  0.37040  0.40949  1.0000
  H   H261      1.0  0.34513  0.35310  0.49749  1.0000
  O  Te21      1.0  0.29860  0.27594  0.15357  1.0000
  O  Te22      1.0  0.33233  0.32363  0.12841  1.0000
  H   H262      1.0  0.37455  0.39469  0.47564  1.0000
  Mg  Mg11      1.0  0.30208  0.27743  0.03675  1.0000
  C   C357      1.0  0.17657  0.15182  0.45730  1.0000
  C   C358      1.0  0.17086  0.11743  0.45796  1.0000
  C  Sn23      1.0  0.19342  0.09493  0.44724  1.0000
  C  Sn24      1.0  0.21788  0.10716  0.43569  1.0000
  C   C359      1.0  0.22339  0.14164  0.43521  1.0000
  C   C360      1.0  0.20069  0.16392  0.44595  1.0000
  H   H263      1.0  0.15901  0.16909  0.46568  1.0000
  O  Te23      1.0  0.19161  0.06063  0.44803  1.0000
  O  Te24      1.0  0.24074  0.08523  0.42488  1.0000
  H   H264      1.0  0.20183  0.19057  0.44552  1.0000
  Mg  Mg12      1.0  0.22824  0.04069  0.43067  1.0000
