data_image0
_chemical_formula_structural       H160C240N16O24C2Sn2C2HTe2HMgC2Sn2C2HTe2HMgC2Sn2C2HTe2HMgC2Sn2C2HTe2HMgC2Sn2C2HTe2HMgC2Sn2C2HTe2HMgC2Sn2C2HTe2HMgC2Sn2C2HTe2HMgC2Sn2C2HTe2HMgC2Sn2C2HTe2HMgC2Sn2C2HTe2HMgC2Sn2C2HTe2HMgC2Sn2C2HTe2HMgC2Sn2C2HTe2HMgC2Sn2C2HTe2HMgC2Sn2C2HTe2HMgC2Sn2C2HTe2HMgC2Sn2C2HTe2HMgC2Sn2C2HTe2HMgC2Sn2C2HTe2HMgC2Sn2C2HTe2HMgC2Sn2C2HTe2HMgC2Sn2C2HTe2HMgC2Sn2C2HTe2HMgC2Sn2C2HTe2HMgC2Sn2C2HTe2HMgC2Sn2C2HTe2HMgC2Sn2C2HTe2HMgC2Sn2C2HTe2HMgC2Sn2C2HTe2HMgC2Sn2C2HTe2HMgC2Sn2C2HTe2HMg
_chemical_formula_sum              "H224 C368 N16 O24 Sn64 Te64 Mg32"
_cell_length_a       47.5087
_cell_length_b       55.0028
_cell_length_c       17.2309
_cell_angle_alpha    155.513
_cell_angle_beta     84.8434
_cell_angle_gamma    91.3526

_symmetry_space_group_name_H-M    'P1'
_space_group_IT_number       1

loop_
  _space_group_symop_operation_xyz
  'x, y, z'

loop_
  _atom_site_type_symbol
  _atom_site_label
  _atom_site_symmetry_multiplicity
  _atom_site_fract_x
  _atom_site_fract_y
  _atom_site_fract_z
  _atom_site_occupancy
  H   H1        1.0  0.12136  0.03919  0.33090  1.0000
  H   H2        1.0  0.07464  0.21711  0.67750  1.0000
  H   H3        1.0  0.03899  0.18503  0.18442  1.0000
  H   H4        1.0  0.11232  0.19003  0.49209  1.0000
  H   H5        1.0  0.16196  0.01939  0.49363  1.0000
  H   H6        1.0  0.13332  0.98823  0.01614  1.0000
  H   H7        1.0  0.00080  0.02502  0.33414  1.0000
  H   H8        1.0  0.97101  0.08052  0.48632  1.0000
  H   H9        1.0  0.01091  0.13480  0.64300  1.0000
  H   H10       1.0  0.00614  0.12757  0.52099  1.0000
  H   H11       1.0  0.20285  0.10234  0.39066  1.0000
  H   H12       1.0  0.45408  0.44417  0.30441  1.0000
  H   H13       1.0  0.45874  0.39290  0.23275  1.0000
  H   H14       1.0  0.50464  0.38228  0.13235  1.0000
  H   H15       1.0  0.50731  0.42997  0.35132  1.0000
  H   H16       1.0  0.48506  0.59053  0.61501  1.0000
  H   H17       1.0  0.47296  0.52567  0.39355  1.0000
  H   H18       1.0  0.46817  0.63146  0.11280  1.0000
  H   H19       1.0  0.44369  0.61797  0.15345  1.0000
  H   H20       1.0  0.54731  0.44985  0.95508  1.0000
  H   H21       1.0  0.57380  0.40380  0.92663  1.0000
  H   H22       1.0  0.60745  0.40965  0.04171  1.0000
  H   H23       1.0  0.66160  0.54628  0.42114  1.0000
  H   H24       1.0  0.63518  0.59441  0.45873  1.0000
  H   H25       1.0  0.58335  0.78218  0.35959  1.0000
  H   H26       1.0  0.55763  0.75189  0.39479  1.0000
  H   H27       1.0  0.61613  0.75250  0.64757  1.0000
  H   H28       1.0  0.65822  0.57245  0.11098  1.0000
  H   H29       1.0  0.63090  0.54797  0.15840  1.0000
  H   H30       1.0  0.46646  0.53884  0.07821  1.0000
  H   H31       1.0  0.43522  0.62784  0.29135  1.0000
  H   H32       1.0  0.38662  0.67846  0.43219  1.0000
  H   H33       1.0  0.32203  0.65903  0.56203  1.0000
  H   H34       1.0  0.35625  0.58829  0.42125  1.0000
  H   H35       1.0  0.38995  0.49063  0.37858  1.0000
  H   H36       1.0  0.42710  0.55018  0.50791  1.0000
  H   H37       1.0  0.35360  0.42909  0.16987  1.0000
  H   H38       1.0  0.33752  0.40172  0.33763  1.0000
  H   H39       1.0  0.37424  0.46200  0.98199  1.0000
  H   H40       1.0  0.54864  0.55187  0.40138  1.0000
  H   H41       1.0  0.52982  0.58336  0.06228  1.0000
  H   H42       1.0  0.51425  0.65850  0.18073  1.0000
  H   H43       1.0  0.52929  0.62185  0.50176  1.0000
  H   H44       1.0  0.53702  0.50493  0.92033  1.0000
  H   H45       1.0  0.54777  0.44785  0.31144  1.0000
  H   H46       1.0  0.51514  0.52520  0.15296  1.0000
  H   H47       1.0  0.51338  0.57755  0.22902  1.0000
  H   H48       1.0  0.26260  0.73669  0.45203  1.0000
  H   H49       1.0  0.25612  0.29297  0.36003  1.0000
  H   H50       1.0  0.67106  0.73030  0.21973  1.0000
  H   H51       1.0  0.69721  0.44082  0.44063  1.0000
  H   H52       1.0  0.95902  0.10173  0.41372  1.0000
  H   H53       1.0  0.94155  0.04124  0.27247  1.0000
  H   H54       1.0  0.98002  0.04568  0.13312  1.0000
  H   H55       1.0  0.94211  0.04871  0.15171  1.0000
  H   H56       1.0  0.95288  0.96583  0.16848  1.0000
  H   H57       1.0  0.91652  0.05157  0.40229  1.0000
  H   H58       1.0  0.87684  0.11341  0.12961  1.0000
  H   H59       1.0  0.83633  0.09684  0.31223  1.0000
  H   H60       1.0  0.87342  0.01455  0.09922  1.0000
  H   H61       1.0  0.75468  0.24361  0.45517  1.0000
  H   H62       1.0  0.04963  0.87019  0.21983  1.0000
  H   H63       1.0  0.07378  0.83008  0.21674  1.0000
  H   H64       1.0  0.10434  0.84059  0.85297  1.0000
  H   H65       1.0  0.14481  0.99760  0.32184  1.0000
  H   H66       1.0  0.01771  0.93644  0.36722  1.0000
  H   H67       1.0  0.01853  0.99085  0.45276  1.0000
  H   H68       1.0  0.19529  0.87154  0.24614  1.0000
  H   H69       1.0  0.97398  0.88761  0.95547  1.0000
  H   H70       1.0  0.98500  0.83224  0.86203  1.0000
  H   H71       1.0  0.99660  0.95747  0.25343  1.0000
  H   H72       1.0  0.01907  0.91169  0.04899  1.0000
  H   H73       1.0  0.93582  0.85366  0.29467  1.0000
  H   H74       1.0  0.97274  0.90942  0.89059  1.0000
  H   H75       1.0  0.88943  0.82110  0.20870  1.0000
  H   H76       1.0  0.83360  0.85965  0.13815  1.0000
  H   H77       1.0  0.86878  0.91445  0.22680  1.0000
  H   H78       1.0  0.05433  0.92385  0.17217  1.0000
  H   H79       1.0  0.05654  0.86962  0.08836  1.0000
  H   H80       1.0  0.79556  0.71623  0.08915  1.0000
  H   H81       1.0  0.11977  0.04137  0.83693  1.0000
  H   H82       1.0  0.07343  0.21787  0.17858  1.0000
  H   H83       1.0  0.04020  0.18396  0.68240  1.0000
  H   H84       1.0  0.11079  0.19085  0.99299  1.0000
  H   H85       1.0  0.16359  0.01876  0.99427  1.0000
  H   H86       1.0  0.13204  0.98903  0.51657  1.0000
  H   H87       1.0  0.99875  0.02807  0.84472  1.0000
  H   H88       1.0  0.96960  0.08408  0.99543  1.0000
  H   H89       1.0  0.00976  0.13699  0.14859  1.0000
  H   H90       1.0  0.00519  0.12893  0.02418  1.0000
  H   H91       1.0  0.20571  0.09898  0.88479  1.0000
  H   H92       1.0  0.45391  0.43457  0.78633  1.0000
  H   H93       1.0  0.45963  0.38636  0.72641  1.0000
  H   H94       1.0  0.50566  0.38019  0.64186  1.0000
  H   H95       1.0  0.50598  0.43135  0.86869  1.0000
  H   H96       1.0  0.48757  0.57298  0.06321  1.0000
  H   H97       1.0  0.47441  0.51155  0.84546  1.0000
  H   H98       1.0  0.46548  0.64010  0.63293  1.0000
  H   H99       1.0  0.44094  0.62999  0.68487  1.0000
  H   H100      1.0  0.55265  0.44071  0.41122  1.0000
  H   H101      1.0  0.57713  0.39375  0.38350  1.0000
  H   H102      1.0  0.60821  0.39978  0.50623  1.0000
  H   H103      1.0  0.65992  0.54038  0.91288  1.0000
  H   H104      1.0  0.63575  0.58837  0.94605  1.0000
  H   H105      1.0  0.58483  0.78650  0.86558  1.0000
  H   H106      1.0  0.55807  0.76138  0.91685  1.0000
  H   H107      1.0  0.61456  0.75332  0.15477  1.0000
  H   H108      1.0  0.65993  0.57616  0.61793  1.0000
  H   H109      1.0  0.63392  0.54672  0.65042  1.0000
  H   H110      1.0  0.46850  0.55109  0.61445  1.0000
  H   H111      1.0  0.43619  0.64046  0.83302  1.0000
  H   H112      1.0  0.38694  0.68699  0.96128  1.0000
  H   H113      1.0  0.32183  0.65513  0.04771  1.0000
  H   H114      1.0  0.35666  0.58419  0.90377  1.0000
  H   H115      1.0  0.39231  0.47606  0.82632  1.0000
  H   H116      1.0  0.42967  0.53627  0.96246  1.0000
  H   H117      1.0  0.35540  0.41810  0.62389  1.0000
  H   H118      1.0  0.33903  0.39608  0.83609  1.0000
  H   H119      1.0  0.37307  0.46797  0.48927  1.0000
  H   H120      1.0  0.55045  0.53817  0.85677  1.0000
  H   H121      1.0  0.52769  0.59774  0.60763  1.0000
  H   H122      1.0  0.51280  0.67204  0.72278  1.0000
  H   H123      1.0  0.53175  0.60971  0.96358  1.0000
  H   H124      1.0  0.53925  0.50411  0.40661  1.0000
  H   H125      1.0  0.54645  0.45181  0.83745  1.0000
  H   H126      1.0  0.51913  0.52058  0.62964  1.0000
  H   H127      1.0  0.51778  0.57535  0.71556  1.0000
  H   H128      1.0  0.26285  0.73643  0.95058  1.0000
  H   H129      1.0  0.25976  0.29681  0.89569  1.0000
  H   H130      1.0  0.66957  0.73899  0.74563  1.0000
  H   H131      1.0  0.69297  0.42280  0.89327  1.0000
  H   H132      1.0  0.95960  0.10478  0.92023  1.0000
  H   H133      1.0  0.94035  0.04710  0.78795  1.0000
  H   H134      1.0  0.97901  0.04861  0.63991  1.0000
  H   H135      1.0  0.94109  0.05271  0.66307  1.0000
  H   H136      1.0  0.95487  0.96162  0.65972  1.0000
  H   H137      1.0  0.91911  0.04818  0.89472  1.0000
  H   H138      1.0  0.87369  0.11525  0.63413  1.0000
  H   H139      1.0  0.83519  0.09817  0.81758  1.0000
  H   H140      1.0  0.87269  0.01588  0.60203  1.0000
  H   H141      1.0  0.75040  0.23636  0.93959  1.0000
  H   H142      1.0  0.05023  0.87015  0.71958  1.0000
  H   H143      1.0  0.07376  0.82973  0.71637  1.0000
  H   H144      1.0  0.10463  0.84152  0.35433  1.0000
  H   H145      1.0  0.14386  0.00017  0.82840  1.0000
  H   H146      1.0  0.01882  0.93700  0.86920  1.0000
  H   H147      1.0  0.01991  0.99079  0.95213  1.0000
  H   H148      1.0  0.19623  0.87276  0.74685  1.0000
  H   H149      1.0  0.97480  0.88041  0.43803  1.0000
  H   H150      1.0  0.98614  0.82778  0.35580  1.0000
  H   H151      1.0  0.99726  0.95398  0.74290  1.0000
  H   H152      1.0  0.01981  0.90708  0.53657  1.0000
  H   H153      1.0  0.93737  0.84906  0.78261  1.0000
  H   H154      1.0  0.97108  0.91428  0.40334  1.0000
  H   H155      1.0  0.89055  0.81777  0.70095  1.0000
  H   H156      1.0  0.83494  0.85695  0.63182  1.0000
  H   H157      1.0  0.87006  0.91256  0.72400  1.0000
  H   H158      1.0  0.05507  0.92266  0.66855  1.0000
  H   H159      1.0  0.05785  0.86940  0.58892  1.0000
  H   H160      1.0  0.79635  0.71301  0.58019  1.0000
  C   C1        1.0  0.46507  0.43418  0.32830  1.0000
  C   C2        1.0  0.49715  0.42658  0.28699  1.0000
  C   C3        1.0  0.48018  0.56741  0.49555  1.0000
  C   C4        1.0  0.45637  0.60667  0.57214  1.0000
  C   C5        1.0  0.59932  0.47462  0.14155  1.0000
  C   C6        1.0  0.60553  0.53011  0.27083  1.0000
  C   C7        1.0  0.58848  0.55901  0.29828  1.0000
  C   C8        1.0  0.56824  0.52891  0.18012  1.0000
  C   C9        1.0  0.56336  0.47240  0.04403  1.0000
  C   C10       1.0  0.57811  0.44654  0.02823  1.0000
  C   C11       1.0  0.61358  0.45033  0.13478  1.0000
  C   C12       1.0  0.63496  0.47692  0.24178  1.0000
  C   C13       1.0  0.64357  0.52705  0.34749  1.0000
  C   C14       1.0  0.62890  0.55417  0.36774  1.0000
  C   C15       1.0  0.58999  0.62189  0.45882  1.0000
  C   C16       1.0  0.60732  0.63631  0.43339  1.0000
  C   C17       1.0  0.60484  0.69601  0.57865  1.0000
  C   C18       1.0  0.58625  0.73623  0.24463  1.0000
  C   C19       1.0  0.57185  0.71969  0.26436  1.0000
  C   C20       1.0  0.57425  0.65942  0.11135  1.0000
  C   C21       1.0  0.61950  0.70772  0.54017  1.0000
  C   C22       1.0  0.63761  0.66338  0.36915  1.0000
  C   C23       1.0  0.64278  0.60677  0.23953  1.0000
  C   C24       1.0  0.62755  0.59281  0.26637  1.0000
  C   C25       1.0  0.39978  0.61824  0.34760  1.0000
  C   C26       1.0  0.39098  0.58905  0.33272  1.0000
  C   C27       1.0  0.41019  0.54208  0.22555  1.0000
  C   C28       1.0  0.43589  0.52235  0.12476  1.0000
  C   C29       1.0  0.44530  0.55362  0.14961  1.0000
  C   C30       1.0  0.42790  0.60195  0.26494  1.0000
  C   C31       1.0  0.37998  0.65995  0.43418  1.0000
  C   C32       1.0  0.35172  0.67273  0.50219  1.0000
  C   C33       1.0  0.34368  0.64700  0.50003  1.0000
  C   C34       1.0  0.36283  0.60746  0.42159  1.0000
  C   C35       1.0  0.40520  0.52070  0.24393  1.0000
  C   C36       1.0  0.38475  0.48304  0.15868  1.0000
  C   C37       1.0  0.37899  0.47236  0.20932  1.0000
  C   C38       1.0  0.39457  0.49795  0.33783  1.0000
  C   C39       1.0  0.41550  0.53164  0.41103  1.0000
  C   C40       1.0  0.42112  0.54271  0.36297  1.0000
  C   C41       1.0  0.35793  0.43666  0.12982  1.0000
  C   C42       1.0  0.34348  0.40928  0.99732  1.0000
  C   C43       1.0  0.35011  0.41782  0.94113  1.0000
  C   C44       1.0  0.36974  0.45455  0.02234  1.0000
  C   C45       1.0  0.52895  0.58312  0.50389  1.0000
  C   C46       1.0  0.53227  0.62316  0.06351  1.0000
  C   C47       1.0  0.53011  0.48845  0.92991  1.0000
  C   C48       1.0  0.52632  0.53821  0.13611  1.0000
  C   C49       1.0  0.28103  0.76037  0.51977  1.0000
  C   C50       1.0  0.28514  0.79515  0.05625  1.0000
  C   C51       1.0  0.30666  0.83308  0.16038  1.0000
  C   C52       1.0  0.27569  0.26652  0.25782  1.0000
  C   C53       1.0  0.28454  0.21694  0.15504  1.0000
  C   C54       1.0  0.31049  0.17917  0.02286  1.0000
  C   C55       1.0  0.68165  0.68993  0.12695  1.0000
  C   C56       1.0  0.69994  0.66448  0.50305  1.0000
  C   C57       1.0  0.71264  0.60688  0.35672  1.0000
  C   C58       1.0  0.67999  0.41549  0.35725  1.0000
  C   C59       1.0  0.67423  0.37467  0.29412  1.0000
  C   C60       1.0  0.64215  0.33453  0.68241  1.0000
  C   C61       1.0  0.97922  0.88007  0.99374  1.0000
  C   C62       1.0  0.00436  0.91123  0.10103  1.0000
  C   C63       1.0  0.96078  0.05292  0.27279  1.0000
  C   C64       1.0  0.96198  0.03079  0.12493  1.0000
  C   C65       1.0  0.09460  0.90651  0.95742  1.0000
  C   C66       1.0  0.09880  0.96422  0.09650  1.0000
  C   C67       1.0  0.08422  0.98832  0.10275  1.0000
  C   C68       1.0  0.06755  0.95357  0.96383  1.0000
  C   C69       1.0  0.06293  0.89670  0.32594  1.0000
  C   C70       1.0  0.07632  0.87432  0.32465  1.0000
  C   C71       1.0  0.10792  0.88431  0.95937  1.0000
  C   C72       1.0  0.12576  0.91632  0.08946  1.0000
  C   C73       1.0  0.13088  0.97201  0.21964  1.0000
  C   C74       1.0  0.11761  0.99574  0.22575  1.0000
  C   C75       1.0  0.08367  0.05155  0.26370  1.0000
  C   C76       1.0  0.10430  0.07104  0.26511  1.0000
  C   C77       1.0  0.09992  0.13055  0.40924  1.0000
  C   C78       1.0  0.07702  0.17116  0.56252  1.0000
  C   C79       1.0  0.05765  0.15254  0.56428  1.0000
  C   C80       1.0  0.06012  0.09207  0.40968  1.0000
  C   C81       1.0  0.11702  0.14578  0.38704  1.0000
  C   C82       1.0  0.13862  0.10500  0.23208  1.0000
  C   C83       1.0  0.14559  0.04979  0.10895  1.0000
  C   C84       1.0  0.12875  0.03251  0.12130  1.0000
  C   C85       1.0  0.89501  0.04621  0.50131  1.0000
  C   C86       1.0  0.89489  0.01567  0.48546  1.0000
  C   C87       1.0  0.91628  0.96606  0.35063  1.0000
  C   C88       1.0  0.93637  0.94719  0.23274  1.0000
  C   C89       1.0  0.93689  0.97915  0.25510  1.0000
  C   C90       1.0  0.91657  0.02734  0.38627  1.0000
  C   C91       1.0  0.87605  0.09230  0.12492  1.0000
  C   C92       1.0  0.85377  0.11147  0.23654  1.0000
  C   C93       1.0  0.85328  0.08193  0.22358  1.0000
  C   C94       1.0  0.87416  0.03552  0.10344  1.0000
  C   C95       1.0  0.91973  0.93596  0.33892  1.0000
  C   C96       1.0  0.89944  0.90156  0.27592  1.0000
  C   C97       1.0  0.90539  0.87242  0.26314  1.0000
  C   C98       1.0  0.93154  0.87662  0.30738  1.0000
  C   C99       1.0  0.95088  0.90963  0.36700  1.0000
  C   C100      1.0  0.94473  0.93990  0.38567  1.0000
  C   C101      1.0  0.88492  0.84056  0.20922  1.0000
  C   C102      1.0  0.85887  0.83655  0.16864  1.0000
  C   C103      1.0  0.85349  0.86383  0.17527  1.0000
  C   C104      1.0  0.87323  0.89459  0.22488  1.0000
  C   C105      1.0  0.99107  0.05834  0.39163  1.0000
  C   C106      1.0  0.01166  0.10287  0.50182  1.0000
  C   C107      1.0  0.04219  0.90557  0.16861  1.0000
  C   C108      1.0  0.03141  0.95347  0.36992  1.0000
  C   C109      1.0  0.77445  0.26272  0.51188  1.0000
  C   C110      1.0  0.77213  0.30124  0.07414  1.0000
  C   C111      1.0  0.79322  0.33973  0.18959  1.0000
  C   C112      1.0  0.78451  0.75411  0.17027  1.0000
  C   C113      1.0  0.76106  0.78341  0.29853  1.0000
  C   C114      1.0  0.74497  0.83540  0.42172  1.0000
  C   C115      1.0  0.18391  0.13455  0.49910  1.0000
  C   C116      1.0  0.17749  0.17628  0.56493  1.0000
  C   C117      1.0  0.15429  0.22306  0.71548  1.0000
  C   C118      1.0  0.17639  0.84977  0.18061  1.0000
  C   C119      1.0  0.17060  0.81487  0.14196  1.0000
  C   C120      1.0  0.14739  0.78129  0.04782  1.0000
  C   C121      1.0  0.46458  0.42815  0.82164  1.0000
  C   C122      1.0  0.49665  0.42462  0.79419  1.0000
  C   C123      1.0  0.48220  0.55355  0.95234  1.0000
  C   C124      1.0  0.45871  0.59659  0.04406  1.0000
  C   C125      1.0  0.60123  0.46591  0.61010  1.0000
  C   C126      1.0  0.60728  0.52248  0.74593  1.0000
  C   C127      1.0  0.59119  0.55179  0.77292  1.0000
  C   C128      1.0  0.57205  0.52140  0.64936  1.0000
  C   C129      1.0  0.56756  0.46374  0.50611  1.0000
  C   C130      1.0  0.58133  0.43725  0.48990  1.0000
  C   C131      1.0  0.61417  0.44142  0.60485  1.0000
  C   C132      1.0  0.63396  0.46926  0.72116  1.0000
  C   C133      1.0  0.64278  0.52042  0.83298  1.0000
  C   C134      1.0  0.62944  0.54742  0.85062  1.0000
  C   C135      1.0  0.59196  0.61554  0.93946  1.0000
  C   C136      1.0  0.60869  0.63298  0.92332  1.0000
  C   C137      1.0  0.60487  0.69339  0.07327  1.0000
  C   C138      1.0  0.58681  0.74111  0.75434  1.0000
  C   C139      1.0  0.57182  0.72745  0.78292  1.0000
  C   C140      1.0  0.57305  0.66798  0.63513  1.0000
  C   C141      1.0  0.61896  0.70809  0.04391  1.0000
  C   C142      1.0  0.63767  0.66598  0.87718  1.0000
  C   C143      1.0  0.64403  0.60872  0.74309  1.0000
  C   C144      1.0  0.62955  0.59194  0.76138  1.0000
  C   C145      1.0  0.40053  0.62423  0.86601  1.0000
  C   C146      1.0  0.39179  0.59110  0.83630  1.0000
  C   C147      1.0  0.41142  0.54376  0.72582  1.0000
  C   C148      1.0  0.43766  0.52819  0.63750  1.0000
  C   C149      1.0  0.44700  0.56352  0.67826  1.0000
  C   C150      1.0  0.42906  0.61188  0.79602  1.0000
  C   C151      1.0  0.38026  0.66571  0.95320  1.0000
  C   C152      1.0  0.35172  0.67484  0.00875  1.0000
  C   C153      1.0  0.34375  0.64576  0.99437  1.0000
  C   C154      1.0  0.36325  0.60610  0.91419  1.0000
  C   C155      1.0  0.40639  0.51821  0.72993  1.0000
  C   C156      1.0  0.38546  0.48073  0.64242  1.0000
  C   C157      1.0  0.38029  0.46543  0.67841  1.0000
  C   C158      1.0  0.39651  0.48690  0.79671  1.0000
  C   C159      1.0  0.41759  0.52085  0.87339  1.0000
  C   C160      1.0  0.42275  0.53635  0.83949  1.0000
  C   C161      1.0  0.35923  0.42898  0.59426  1.0000
  C   C162      1.0  0.34393  0.40575  0.47232  1.0000
  C   C163      1.0  0.34939  0.41990  0.43366  1.0000
  C   C164      1.0  0.36929  0.45686  0.51814  1.0000
  C   C165      1.0  0.53087  0.56960  0.96073  1.0000
  C   C166      1.0  0.53039  0.63588  0.60284  1.0000
  C   C167      1.0  0.53228  0.48683  0.41332  1.0000
  C   C168      1.0  0.53021  0.53441  0.61551  1.0000
  C   C169      1.0  0.28095  0.76100  0.02165  1.0000
  C   C170      1.0  0.28548  0.79381  0.55176  1.0000
  C   C171      1.0  0.30756  0.83038  0.65091  1.0000
  C   C172      1.0  0.27473  0.26798  0.77217  1.0000
  C   C173      1.0  0.27933  0.21044  0.62909  1.0000
  C   C174      1.0  0.29866  0.16575  0.45755  1.0000
  C   C175      1.0  0.67980  0.69796  0.65016  1.0000
  C   C176      1.0  0.70233  0.65713  0.98260  1.0000
  C   C177      1.0  0.71517  0.59991  0.83821  1.0000
  C   C178      1.0  0.67413  0.40213  0.82447  1.0000
  C   C179      1.0  0.66648  0.36426  0.77197  1.0000
  C   C180      1.0  0.65304  0.33722  0.17637  1.0000
  C   C181      1.0  0.98021  0.87521  0.48342  1.0000
  C   C182      1.0  0.00526  0.90749  0.59162  1.0000
  C   C183      1.0  0.96014  0.05621  0.78117  1.0000
  C   C184      1.0  0.96103  0.03402  0.63314  1.0000
  C   C185      1.0  0.09417  0.90750  0.45952  1.0000
  C   C186      1.0  0.09791  0.96548  0.59953  1.0000
  C   C187      1.0  0.08309  0.98924  0.60505  1.0000
  C   C188      1.0  0.06646  0.95417  0.46558  1.0000
  C   C189      1.0  0.06360  0.89634  0.82497  1.0000
  C   C190      1.0  0.07665  0.87377  0.82356  1.0000
  C   C191      1.0  0.10784  0.88549  0.46161  1.0000
  C   C192      1.0  0.12558  0.91793  0.59272  1.0000
  C   C193      1.0  0.13011  0.97411  0.72479  1.0000
  C   C194      1.0  0.11648  0.99759  0.73053  1.0000
  C   C195      1.0  0.08237  0.05238  0.76519  1.0000
  C   C196      1.0  0.10286  0.07172  0.76553  1.0000
  C   C197      1.0  0.09850  0.13121  0.90956  1.0000
  C   C198      1.0  0.07572  0.17191  0.06350  1.0000
  C   C199      1.0  0.05639  0.15342  0.06586  1.0000
  C   C200      1.0  0.05889  0.09300  0.91175  1.0000
  C   C201      1.0  0.11548  0.14647  0.88719  1.0000
  C   C202      1.0  0.13695  0.10570  0.73155  1.0000
  C   C203      1.0  0.14394  0.05044  0.60832  1.0000
  C   C204      1.0  0.12726  0.03322  0.62126  1.0000
  C   C205      1.0  0.89706  0.04375  0.99601  1.0000
  C   C206      1.0  0.89639  0.01336  0.98073  1.0000
  C   C207      1.0  0.91758  0.96345  0.84576  1.0000
  C   C208      1.0  0.93775  0.94384  0.72612  1.0000
  C   C209      1.0  0.93876  0.97555  0.74765  1.0000
  C   C210      1.0  0.91876  0.02422  0.87964  1.0000
  C   C211      1.0  0.87360  0.09421  0.62970  1.0000
  C   C212      1.0  0.85170  0.11292  0.74130  1.0000
  C   C213      1.0  0.85183  0.08339  0.72834  1.0000
  C   C214      1.0  0.87297  0.03720  0.60748  1.0000
  C   C215      1.0  0.92093  0.93340  0.83427  1.0000
  C   C216      1.0  0.90065  0.89899  0.77113  1.0000
  C   C217      1.0  0.90667  0.86924  0.75616  1.0000
  C   C218      1.0  0.93300  0.87255  0.79729  1.0000
  C   C219      1.0  0.95237  0.90553  0.85688  1.0000
  C   C220      1.0  0.94608  0.93662  0.87859  1.0000
  C   C221      1.0  0.88611  0.83745  0.70219  1.0000
  C   C222      1.0  0.86006  0.83371  0.66216  1.0000
  C   C223      1.0  0.85474  0.86120  0.66949  1.0000
  C   C224      1.0  0.87448  0.89222  0.72040  1.0000
  C   C225      1.0  0.98967  0.06086  0.89901  1.0000
  C   C226      1.0  0.01059  0.10462  0.00656  1.0000
  C   C227      1.0  0.04325  0.90477  0.66710  1.0000
  C   C228      1.0  0.03260  0.95336  0.86961  1.0000
  C   C229      1.0  0.76922  0.25861  0.00564  1.0000
  C   C230      1.0  0.77871  0.30437  0.57689  1.0000
  C   C231      1.0  0.80161  0.33863  0.67709  1.0000
  C   C232      1.0  0.78543  0.75143  0.66363  1.0000
  C   C233      1.0  0.76214  0.78067  0.79240  1.0000
  C   C234      1.0  0.74622  0.83325  0.91834  1.0000
  C   C235      1.0  0.18649  0.13059  0.99078  1.0000
  C   C236      1.0  0.17974  0.17162  0.05395  1.0000
  C   C237      1.0  0.15659  0.21851  0.20509  1.0000
  C   C238      1.0  0.17725  0.85114  0.68207  1.0000
  C   C239      1.0  0.17142  0.81654  0.64463  1.0000
  C   C240      1.0  0.14832  0.78266  0.54943  1.0000
  N   N1        1.0  0.32358  0.86590  0.24836  1.0000
  N   N2        1.0  0.33157  0.14673  0.91182  1.0000
  N   N3        1.0  0.62226  0.30931  0.60990  1.0000
  N   N4        1.0  0.72331  0.55872  0.22946  1.0000
  N   N5        1.0  0.80946  0.37374  0.29079  1.0000
  N   N6        1.0  0.73103  0.87803  0.52481  1.0000
  N   N7        1.0  0.12879  0.75239  0.96882  1.0000
  N   N8        1.0  0.13590  0.26308  0.84107  1.0000
  N   N9        1.0  0.32502  0.86196  0.73469  1.0000
  N   N10       1.0  0.31381  0.12762  0.31220  1.0000
  N   N11       1.0  0.63607  0.30503  0.07809  1.0000
  N   N12       1.0  0.72568  0.55199  0.71344  1.0000
  N   N13       1.0  0.81963  0.36890  0.76396  1.0000
  N   N14       1.0  0.73254  0.87642  0.02354  1.0000
  N   N15       1.0  0.12991  0.75328  0.46895  1.0000
  N   N16       1.0  0.13840  0.25887  0.33202  1.0000
  O   O1        1.0  0.45297  0.47415  0.01194  1.0000
  O   O2        1.0  0.50565  0.55191  0.39956  1.0000
  O   O3        1.0  0.55867  0.64610  0.14077  1.0000
  O   O4        1.0  0.44153  0.57591  0.43013  1.0000
  O   O5        1.0  0.50437  0.47105  0.36155  1.0000
  O   O6        1.0  0.55295  0.55777  0.20755  1.0000
  O   O7        1.0  0.95436  0.89588  0.09390  1.0000
  O   O8        1.0  0.98576  0.02692  0.23213  1.0000
  O   O9        1.0  0.03975  0.06952  0.39233  1.0000
  O   O10       1.0  0.96713  0.96717  0.93315  1.0000
  O   O11       1.0  0.01878  0.87896  0.06687  1.0000
  O   O12       1.0  0.05563  0.97856  0.97274  1.0000
  O   O13       1.0  0.45577  0.47987  0.51991  1.0000
  O   O14       1.0  0.50736  0.53905  0.85797  1.0000
  O   O15       1.0  0.55715  0.65812  0.67553  1.0000
  O   O16       1.0  0.44313  0.57065  0.91322  1.0000
  O   O17       1.0  0.50311  0.46840  0.86483  1.0000
  O   O18       1.0  0.55748  0.55096  0.67802  1.0000
  O   O19       1.0  0.95541  0.89214  0.58672  1.0000
  O   O20       1.0  0.98443  0.02870  0.73780  1.0000
  O   O21       1.0  0.03858  0.07085  0.89636  1.0000
  O   O22       1.0  0.96571  0.97050  0.44004  1.0000
  O   O23       1.0  0.01987  0.87720  0.56443  1.0000
  O   O24       1.0  0.05424  0.97917  0.47489  1.0000
  C   C241      1.0  0.23692  0.74734  0.79022  1.0000
  C   C242      1.0  0.23431  0.78958  0.85430  1.0000
  C  Sn1       1.0  0.25024  0.83670  0.98960  1.0000
  C  Sn2       1.0  0.29394  0.55690  0.06178  1.0000
  C   C243      1.0  0.27158  0.79898  0.99665  1.0000
  C   C244      1.0  0.25553  0.75201  0.86128  1.0000
  H   H161      1.0  0.22451  0.71098  0.68540  1.0000
  O  Te1       1.0  0.27220  0.59395  0.05213  1.0000
  O  Te2       1.0  0.31012  0.60354  0.19703  1.0000
  H   H162      1.0  0.25757  0.71929  0.81160  1.0000
  Mg  Mg1       1.0  0.29879  0.64948  0.23803  1.0000
  C   C245      1.0  0.26947  0.84376  0.55129  1.0000
  C   C246      1.0  0.26831  0.80808  0.51345  1.0000
  C  Sn3       1.0  0.25110  0.76307  0.38715  1.0000
  C  Sn4       1.0  0.23476  0.75372  0.29724  1.0000
  C   C247      1.0  0.23609  0.78963  0.33595  1.0000
  C   C248      1.0  0.25338  0.83455  0.46262  1.0000
  H   H163      1.0  0.28286  0.87850  0.64921  1.0000
  O  Te3       1.0  0.25018  0.72784  0.35100  1.0000
  O  Te4       1.0  0.21739  0.70904  0.17036  1.0000
  H   H164      1.0  0.25429  0.86215  0.49179  1.0000
  Mg  Mg2       1.0  0.22329  0.67263  0.16723  1.0000
  C   C249      1.0  0.72033  0.39246  0.43923  1.0000
  C   C250      1.0  0.69646  0.36977  0.35050  1.0000
  C  Sn5       1.0  0.68184  0.33401  0.29704  1.0000
  C  Sn6       1.0  0.69133  0.32082  0.33331  1.0000
  C   C251      1.0  0.71522  0.34376  0.42228  1.0000
  C   C252      1.0  0.72970  0.37948  0.47513  1.0000
  H   H165      1.0  0.73152  0.42012  0.48022  1.0000
  O  Te5       1.0  0.65804  0.31169  0.20845  1.0000
  O  Te6       1.0  0.67711  0.28521  0.28143  1.0000
  H   H166      1.0  0.74817  0.39707  0.54394  1.0000
  Mg  Mg3       1.0  0.64578  0.26523  0.16435  1.0000
  C   C253      1.0  0.72433  0.36152  0.88354  1.0000
  C   C254      1.0  0.71471  0.34057  0.89508  1.0000
  C  Sn7       1.0  0.68796  0.32147  0.85040  1.0000
  C  Sn8       1.0  0.67057  0.32343  0.79311  1.0000
  C   C255      1.0  0.68040  0.34444  0.78189  1.0000
  C   C256      1.0  0.70720  0.36345  0.82698  1.0000
  H   H167      1.0  0.74507  0.37621  0.91832  1.0000
  O  Te7       1.0  0.67867  0.30068  0.86275  1.0000
  O  Te8       1.0  0.64375  0.30460  0.74758  1.0000
  H   H168      1.0  0.71465  0.37964  0.81792  1.0000
  Mg  Mg4       1.0  0.64050  0.27994  0.78619  1.0000
  C   C257      1.0  0.70055  0.75483  0.59614  1.0000
  C   C258      1.0  0.72422  0.73052  0.47598  1.0000
  C  Sn9       1.0  0.74132  0.67901  0.34713  1.0000
  C  Sn10      1.0  0.73453  0.65141  0.33869  1.0000
  C   C259      1.0  0.71080  0.67605  0.45941  1.0000
  C   C260      1.0  0.69383  0.72762  0.58786  1.0000
  H   H169      1.0  0.68741  0.79471  0.69546  1.0000
  O  Te9       1.0  0.76490  0.65532  0.22816  1.0000
  O  Te10      1.0  0.75126  0.59988  0.21119  1.0000
  H   H170      1.0  0.67550  0.74641  0.68079  1.0000
  Mg  Mg5       1.0  0.78119  0.58447  0.07838  1.0000
  C   C261      1.0  0.22583  0.22420  0.32072  1.0000
  C   C262      1.0  0.23628  0.19556  0.30294  1.0000
  C  Sn11      1.0  0.26506  0.17169  0.23232  1.0000
  C  Sn12      1.0  0.28367  0.17667  0.17868  1.0000
  C   C263      1.0  0.27301  0.20544  0.19714  1.0000
  C   C264      1.0  0.24417  0.22915  0.26791  1.0000
  H   H171      1.0  0.20352  0.24257  0.37557  1.0000
  O  Te11      1.0  0.27515  0.14320  0.21542  1.0000
  O  Te12      1.0  0.31253  0.15323  0.10776  1.0000
  H   H172      1.0  0.23609  0.25135  0.28178  1.0000
  Mg  Mg6       1.0  0.31618  0.11843  0.11117  1.0000
  C   C265      1.0  0.32871  0.77365  0.64927  1.0000
  C   C266      1.0  0.30383  0.75524  0.57283  1.0000
  C  Sn13      1.0  0.29083  0.71276  0.49237  1.0000
  C  Sn14      1.0  0.30302  0.68836  0.48862  1.0000
  C   C267      1.0  0.32790  0.70710  0.56558  1.0000
  C   C268      1.0  0.34073  0.74962  0.64569  1.0000
  H   H173      1.0  0.33863  0.80657  0.71134  1.0000
  O  Te13      1.0  0.26599  0.69485  0.41657  1.0000
  O  Te14      1.0  0.29047  0.64585  0.40913  1.0000
  H   H174      1.0  0.35998  0.76390  0.70497  1.0000
  Mg  Mg7       1.0  0.25679  0.63570  0.32377  1.0000
  C   C269      1.0  0.32954  0.28992  0.17499  1.0000
  C   C270      1.0  0.32383  0.35037  0.33505  1.0000
  C  Sn15      1.0  0.30016  0.38520  0.47480  1.0000
  C  Sn16      1.0  0.28190  0.35890  0.45354  1.0000
  C   C271      1.0  0.28780  0.29839  0.29295  1.0000
  C   C272      1.0  0.31154  0.26395  0.15395  1.0000
  H   H175      1.0  0.34791  0.26327  0.06748  1.0000
  O  Te15      1.0  0.29477  0.44553  0.63378  1.0000
  O  Te16      1.0  0.25810  0.39268  0.59108  1.0000
  H   H176      1.0  0.31596  0.21715  0.03010  1.0000
  Mg  Mg8       1.0  0.25969  0.47306  0.78244  1.0000
  C   C273      1.0  0.31216  0.09250  0.03664  1.0000
  C   C274      1.0  0.28522  0.31703  0.85275  1.0000
  C  Sn17      1.0  0.30312  0.28287  0.69670  1.0000
  C  Sn18      1.0  0.32349  0.30945  0.72574  1.0000
  C   C275      1.0  0.32545  0.36956  0.91028  1.0000
  C   C276      1.0  0.33226  0.11875  0.06542  1.0000
  H   H177      1.0  0.29823  0.11863  0.15669  1.0000
  O  Te17      1.0  0.30071  0.22293  0.51392  1.0000
  O  Te18      1.0  0.34164  0.27633  0.57231  1.0000
  H   H178      1.0  0.33391  0.16524  0.20779  1.0000
  Mg  Mg9       1.0  0.33020  0.19627  0.35033  1.0000
  C   C277      1.0  0.68549  0.46080  0.33726  1.0000
  C   C278      1.0  0.67086  0.44199  0.34999  1.0000
  C  Sn19      1.0  0.64344  0.42692  0.30384  1.0000
  C  Sn20      1.0  0.63049  0.43078  0.24382  1.0000
  C   C279      1.0  0.64531  0.44960  0.23142  1.0000
  C   C280      1.0  0.67273  0.46460  0.27801  1.0000
  H   H179      1.0  0.70672  0.47237  0.37320  1.0000
  O  Te19      1.0  0.62913  0.40823  0.31741  1.0000
  O  Te20      1.0  0.60311  0.41596  0.19677  1.0000
  H   H180      1.0  0.68406  0.47912  0.26802  1.0000
  Mg  Mg10      1.0  0.59220  0.39290  0.23794  1.0000
  C   C281      1.0  0.68781  0.63731  0.12623  1.0000
  C   C282      1.0  0.67470  0.66634  0.14902  1.0000
  C  Sn21      1.0  0.64836  0.70223  0.26724  1.0000
  C  Sn22      1.0  0.63494  0.70912  0.36430  1.0000
  C   C283      1.0  0.64824  0.67993  0.34065  1.0000
  C   C284      1.0  0.67460  0.64410  0.22196  1.0000
  H   H181      1.0  0.70821  0.60962  0.03448  1.0000
  O  Te21      1.0  0.63555  0.73090  0.28835  1.0000
  O  Te22      1.0  0.60862  0.74475  0.48338  1.0000
  H   H182      1.0  0.68475  0.62166  0.20444  1.0000
  Mg  Mg11      1.0  0.59965  0.77468  0.46622  1.0000
  C   C285      1.0  0.75854  0.36342  0.11518  1.0000
  C   C286      1.0  0.75515  0.32473  0.06472  1.0000
  C  Sn23      1.0  0.71214  0.56645  0.93668  1.0000
  C  Sn24      1.0  0.69710  0.56234  0.85790  1.0000
  C   C287      1.0  0.70066  0.60123  0.90918  1.0000
  C   C288      1.0  0.74372  0.35939  0.03748  1.0000
  H   H183      1.0  0.77267  0.39648  0.21436  1.0000
  O  Te23      1.0  0.70900  0.52815  0.88787  1.0000
  O  Te24      1.0  0.67880  0.51989  0.72955  1.0000
  H   H184      1.0  0.74636  0.38932  0.07642  1.0000
  Mg  Mg12      1.0  0.68159  0.47773  0.70715  1.0000
  C   C289      1.0  0.73241  0.27411  0.34636  1.0000
  C   C290      1.0  0.72984  0.32331  0.44073  1.0000
  C  Sn25      1.0  0.74456  0.37086  0.59154  1.0000
  C  Sn26      1.0  0.76217  0.36897  0.64857  1.0000
  C   C291      1.0  0.76461  0.31953  0.55315  1.0000
  C   C292      1.0  0.74978  0.27221  0.40247  1.0000
  H   H185      1.0  0.72095  0.23748  0.22970  1.0000
  O  Te25      1.0  0.74175  0.41968  0.68432  1.0000
  O  Te26      1.0  0.77712  0.41587  0.79879  1.0000
  H   H186      1.0  0.75178  0.23410  0.32935  1.0000
  Mg  Mg13      1.0  0.76639  0.47267  0.88094  1.0000
  C   C293      1.0  0.21846  0.84157  0.29977  1.0000
  C   C294      1.0  0.19490  0.81450  0.20561  1.0000
  C  Sn27      1.0  0.18244  0.77974  0.16109  1.0000
  C  Sn28      1.0  0.19382  0.77205  0.21201  1.0000
  C   C295      1.0  0.21739  0.79936  0.30631  1.0000
  C   C296      1.0  0.22969  0.83403  0.35012  1.0000
  H   H187      1.0  0.22798  0.86842  0.33377  1.0000
  O  Te27      1.0  0.15892  0.75299  0.06691  1.0000
  O  Te28      1.0  0.18178  0.73757  0.16931  1.0000
  H   H188      1.0  0.24792  0.85502  0.42313  1.0000
  Mg  Mg14      1.0  0.14996  0.71015  0.03957  1.0000
  C   C297      1.0  0.18705  0.23235  0.58066  1.0000
  C   C298      1.0  0.19100  0.18917  0.51232  1.0000
  C  Sn29      1.0  0.21462  0.14487  0.37559  1.0000
  C  Sn30      1.0  0.23462  0.14391  0.30631  1.0000
  C   C299      1.0  0.23047  0.18733  0.37569  1.0000
  C   C300      1.0  0.20676  0.23144  0.51245  1.0000
  H   H189      1.0  0.16871  0.26650  0.68655  1.0000
  O  Te29      1.0  0.21825  0.10207  0.30880  1.0000
  O  Te30      1.0  0.25841  0.10015  0.16971  1.0000
  H   H190      1.0  0.20371  0.26489  0.56543  1.0000
  Mg  Mg15      1.0  0.25405  0.05146  0.12259  1.0000
  C   C301      1.0  0.73063  0.80530  0.55787  1.0000
  C   C302      1.0  0.73411  0.75019  0.43386  1.0000
  C  Sn31      1.0  0.74806  0.70012  0.24708  1.0000
  C  Sn32      1.0  0.75869  0.70547  0.18369  1.0000
  C   C303      1.0  0.75511  0.76081  0.30889  1.0000
  C   C304      1.0  0.74112  0.81062  0.49549  1.0000
  H   H191      1.0  0.71982  0.84385  0.70228  1.0000
  O  Te31      1.0  0.75135  0.64539  0.12503  1.0000
  O  Te32      1.0  0.74790  0.94074  0.99776  1.0000
  H   H192      1.0  0.73844  0.85329  0.59150  1.0000
  Mg  Mg16      1.0  0.74714  0.87569  0.88478  1.0000
  C   C305      1.0  0.83936  0.22023  0.47403  1.0000
  C   C306      1.0  0.83395  0.17440  0.39151  1.0000
  C  Sn33      1.0  0.80667  0.15780  0.35375  1.0000
  C  Sn34      1.0  0.78443  0.18770  0.39956  1.0000
  C   C307      1.0  0.79006  0.23346  0.48196  1.0000
  C   C308      1.0  0.81744  0.24973  0.51919  1.0000
  H   H193      1.0  0.86055  0.23280  0.50275  1.0000
  O  Te33      1.0  0.80163  0.11193  0.27131  1.0000
  O  Te34      1.0  0.75696  0.17199  0.36327  1.0000
  H   H194      1.0  0.82163  0.28518  0.58297  1.0000
  Mg  Mg17      1.0  0.76065  0.10667  0.24926  1.0000
  C   C309      1.0  0.83487  0.73688  0.01978  1.0000
  C   C310      1.0  0.80681  0.76076  0.11422  1.0000
  C  Sn35      1.0  0.79279  0.80807  0.21208  1.0000
  C  Sn36      1.0  0.80717  0.83181  0.21515  1.0000
  C   C311      1.0  0.83524  0.80758  0.12011  1.0000
  C   C312      1.0  0.84908  0.76025  0.02268  1.0000
  H   H195      1.0  0.82076  0.98484  0.94430  1.0000
  O  Te35      1.0  0.76476  0.83141  0.30573  1.0000
  O  Te36      1.0  0.79366  0.87907  0.31180  1.0000
  H   H196      1.0  0.84597  0.02634  0.94947  1.0000
  Mg  Mg18      1.0  0.75538  0.89573  0.41793  1.0000
  C   C313      1.0  0.17105  0.91198  0.17736  1.0000
  C   C314      1.0  0.14659  0.89628  0.10258  1.0000
  C  Sn37      1.0  0.12815  0.86532  0.05903  1.0000
  C  Sn38      1.0  0.13437  0.84987  0.09115  1.0000
  C   C315      1.0  0.15888  0.86582  0.16614  1.0000
  C   C316      1.0  0.17719  0.89678  0.20915  1.0000
  H   H197      1.0  0.18521  0.93596  0.21074  1.0000
  O  Te37      1.0  0.07899  0.13455  0.98434  1.0000
  O  Te38      1.0  0.11630  0.81895  0.04896  1.0000
  H   H198      1.0  0.19612  0.90896  0.26717  1.0000
  Mg  Mg19      1.0  0.06093  0.09250  0.94958  1.0000
  C   C317      1.0  0.19079  0.08636  0.01410  1.0000
  C   C318      1.0  0.17696  0.11220  0.02677  1.0000
  C  Sn39      1.0  0.14921  0.14238  0.12688  1.0000
  C  Sn40      1.0  0.13511  0.14671  0.21584  1.0000
  C   C319      1.0  0.14914  0.12075  0.20244  1.0000
  C   C320      1.0  0.17690  0.09063  0.10187  1.0000
  H   H199      1.0  0.18746  0.34768  0.93638  1.0000
  O  Te39      1.0  0.13569  0.16791  0.13807  1.0000
  O  Te40      1.0  0.10737  0.17664  0.31684  1.0000
  H   H200      1.0  0.18762  0.07067  0.09218  1.0000
  Mg  Mg20      1.0  0.09788  0.20407  0.29176  1.0000
  C   C321      1.0  0.16473  0.15923  0.69367  1.0000
  C   C322      1.0  0.19170  0.13946  0.59861  1.0000
  C  Sn41      1.0  0.21207  0.10367  0.53375  1.0000
  C  Sn42      1.0  0.20525  0.08743  0.56480  1.0000
  C   C323      1.0  0.17821  0.10741  0.65993  1.0000
  C   C324      1.0  0.15799  0.14322  0.72429  1.0000
  H   H201      1.0  0.14908  0.18692  0.74338  1.0000
  O  Te41      1.0  0.23891  0.08432  0.43909  1.0000
  O  Te42      1.0  0.22520  0.05169  0.50141  1.0000
  H   H202      1.0  0.13711  0.15850  0.79778  1.0000
  Mg  Mg21      1.0  0.25889  0.03642  0.37967  1.0000
  C   C325      1.0  0.73971  0.63994  0.79055  1.0000
  C   C326      1.0  0.71895  0.66886  0.92950  1.0000
  C  Sn43      1.0  0.72776  0.43788  0.06712  1.0000
  C  Sn44      1.0  0.73265  0.46288  0.06520  1.0000
  C   C327      1.0  0.72863  0.71817  0.92550  1.0000
  C   C328      1.0  0.74454  0.66456  0.78850  1.0000
  H   H203      1.0  0.75201  0.59844  0.68448  1.0000
  O  Te43      1.0  0.70711  0.46619  0.20497  1.0000
  O  Te44      1.0  0.71694  0.51640  0.20102  1.0000
  H   H204      1.0  0.76059  0.64216  0.68086  1.0000
  Mg  Mg22      1.0  0.69118  0.53823  0.35995  1.0000
  C   C329      1.0  0.30760  0.15371  0.61443  1.0000
  C   C330      1.0  0.26820  0.18038  0.62732  1.0000
  C  Sn45      1.0  0.24057  0.21151  0.72584  1.0000
  C  Sn46      1.0  0.25211  0.21597  0.81297  1.0000
  C   C331      1.0  0.26438  0.18917  0.79938  1.0000
  C   C332      1.0  0.29204  0.15811  0.70039  1.0000
  H   H205      1.0  0.32900  0.12970  0.53793  1.0000
  O  Te45      1.0  0.22884  0.23787  0.73728  1.0000
  O  Te46      1.0  0.22446  0.24684  0.91238  1.0000
  H   H206      1.0  0.30138  0.13750  0.69054  1.0000
  Mg  Mg23      1.0  0.19039  0.27516  0.88835  1.0000
  C   C333      1.0  0.33725  0.76331  0.15159  1.0000
  C   C334      1.0  0.33171  0.72333  0.09447  1.0000
  C  Sn47      1.0  0.30772  0.69416  0.01041  1.0000
  C  Sn48      1.0  0.26415  0.98989  0.98318  1.0000
  C   C335      1.0  0.29471  0.74534  0.04069  1.0000
  C   C336      1.0  0.31877  0.77430  0.12471  1.0000
  H   H207      1.0  0.35588  0.78570  0.21651  1.0000
  O  Te47      1.0  0.27768  0.93896  0.95424  1.0000
  O  Te48      1.0  0.24002  0.96132  0.89946  1.0000
  H   H208      1.0  0.32306  0.80522  0.16881  1.0000
  Mg  Mg24      1.0  0.24202  0.91096  0.84668  1.0000
  C   C337      1.0  0.63002  0.40719  0.73057  1.0000
  C   C338      1.0  0.65623  0.41030  0.76915  1.0000
  C  Sn49      1.0  0.67718  0.43707  0.80385  1.0000
  C  Sn50      1.0  0.67173  0.46115  0.79982  1.0000
  C   C339      1.0  0.64544  0.45785  0.76122  1.0000
  C   C340      1.0  0.62463  0.43095  0.72664  1.0000
  H   H209      1.0  0.61391  0.38640  0.70392  1.0000
  O  Te49      1.0  0.70325  0.43977  0.84209  1.0000
  O  Te50      1.0  0.69229  0.48817  0.83406  1.0000
  H   H210      1.0  0.60433  0.42858  0.69690  1.0000
  Mg  Mg25      1.0  0.72451  0.48101  0.87959  1.0000
  C   C341      1.0  0.63354  0.72400  0.89717  1.0000
  C   C342      1.0  0.64415  0.68438  0.83782  1.0000
  C  Sn51      1.0  0.67012  0.64762  0.71455  1.0000
  C  Sn52      1.0  0.68571  0.65070  0.64976  1.0000
  C   C343      1.0  0.67492  0.69052  0.71007  1.0000
  C   C344      1.0  0.64891  0.72709  0.83340  1.0000
  H   H211      1.0  0.61342  0.75232  0.99268  1.0000
  O  Te51      1.0  0.68040  0.60826  0.65660  1.0000
  O  Te52      1.0  0.71172  0.61448  0.52655  1.0000
  H   H212      1.0  0.64071  0.75779  0.87942  1.0000
  Mg  Mg26      1.0  0.71688  0.56803  0.48765  1.0000
  C   C345      1.0  0.19012  0.76893  0.69438  1.0000
  C   C346      1.0  0.21546  0.79054  0.76978  1.0000
  C  Sn53      1.0  0.22797  0.82563  0.81581  1.0000
  C  Sn54      1.0  0.21481  0.83928  0.78569  1.0000
  C   C347      1.0  0.18945  0.81748  0.71032  1.0000
  C   C348      1.0  0.17712  0.78239  0.66470  1.0000
  H   H213      1.0  0.18057  0.74180  0.65917  1.0000
  O  Te53      1.0  0.25329  0.84684  0.89095  1.0000
  O  Te54      1.0  0.22685  0.87427  0.83051  1.0000
  H   H214      1.0  0.15749  0.76569  0.60644  1.0000
  Mg  Mg27      1.0  0.26150  0.89278  0.92947  1.0000
  C   C349      1.0  0.19625  0.22826  0.03103  1.0000
  C   C350      1.0  0.19669  0.47946  0.90172  1.0000
  C  Sn55      1.0  0.20959  0.43109  0.80116  1.0000
  C  Sn56      1.0  0.19692  0.41596  0.83086  1.0000
  C   C351      1.0  0.17164  0.44962  0.96043  1.0000
  C   C352      1.0  0.18373  0.21335  0.06035  1.0000
  H   H215      1.0  0.18639  0.26563  0.10827  1.0000
  O  Te55      1.0  0.23483  0.39822  0.67256  1.0000
  O  Te56      1.0  0.20936  0.36782  0.73219  1.0000
  H   H216      1.0  0.16416  0.23917  0.16037  1.0000
  Mg  Mg28      1.0  0.24371  0.33658  0.57210  1.0000
  C   C353      1.0  0.75988  0.52397  0.02772  1.0000
  C   C354      1.0  0.75032  0.77429  0.86691  1.0000
  C  Sn57      1.0  0.75970  0.71418  0.70282  1.0000
  C  Sn58      1.0  0.75366  0.68803  0.70008  1.0000
  C   C355      1.0  0.73836  0.72269  0.86164  1.0000
  C   C356      1.0  0.75390  0.49820  0.02511  1.0000
  H   H217      1.0  0.75269  0.57047  0.15417  1.0000
  O  Te57      1.0  0.77493  0.68059  0.54344  1.0000
  O  Te58      1.0  0.76277  0.62806  0.53794  1.0000
  H   H218      1.0  0.74208  0.52472  0.14955  1.0000
  Mg  Mg29      1.0  0.78281  0.60067  0.35634  1.0000
  C   C357      1.0  0.82481  0.24136  0.01533  1.0000
  C   C358      1.0  0.77119  0.52217  0.99790  1.0000
  C  Sn59      1.0  0.75779  0.47988  0.91724  1.0000
  C  Sn60      1.0  0.77358  0.44073  0.85300  1.0000
  C   C359      1.0  0.80238  0.44491  0.87119  1.0000
  C   C360      1.0  0.81558  0.48737  0.95207  1.0000
  H   H219      1.0  0.83503  0.27424  0.07800  1.0000
  O  Te59      1.0  0.72900  0.47668  0.90085  1.0000
  O  Te60      1.0  0.76071  0.39806  0.77189  1.0000
  H   H220      1.0  0.83788  0.49032  0.96565  1.0000
  Mg  Mg30      1.0  0.72097  0.41107  0.78042  1.0000
  C   C361      1.0  0.79232  0.82265  0.73105  1.0000
  C   C362      1.0  0.79661  0.77442  0.64067  1.0000
  C  Sn61      1.0  0.82346  0.74025  0.54060  1.0000
  C  Sn62      1.0  0.84640  0.75474  0.53114  1.0000
  C   C363      1.0  0.84189  0.80310  0.62215  1.0000
  C   C364      1.0  0.81493  0.83699  0.72185  1.0000
  H   H221      1.0  0.77147  0.84889  0.80828  1.0000
  O  Te61      1.0  0.82738  0.69220  0.45107  1.0000
  O  Te62      1.0  0.87345  0.72134  0.43215  1.0000
  H   H222      1.0  0.81162  0.87435  0.79191  1.0000
  Mg  Mg31      1.0  0.86817  0.66006  0.33347  1.0000
  C   C365      1.0  0.17855  0.90132  0.67894  1.0000
  C   C366      1.0  0.16629  0.87631  0.67285  1.0000
  C  Sn63      1.0  0.13945  0.85789  0.61921  1.0000
  C  Sn64      1.0  0.12468  0.86469  0.57079  1.0000
  C   C367      1.0  0.13714  0.88972  0.57720  1.0000
  C   C368      1.0  0.16399  0.90801  0.63114  1.0000
  H   H223      1.0  0.19933  0.91545  0.72057  1.0000
  O  Te63      1.0  0.12751  0.83302  0.61395  1.0000
  O  Te64      1.0  0.09784  0.84664  0.51661  1.0000
  H   H224      1.0  0.17348  0.92734  0.63572  1.0000
  Mg  Mg32      1.0  0.09043  0.81523  0.53124  1.0000
