data_image0
_chemical_formula_structural       H224C336N16O24SnCSn2CSnTe4Mg2SnCSn2CSnTe4Mg2SnCSn2CSnTe4Mg2SnCSn2CSnTe4Mg2SnCSn2CSnTe4Mg2SnCSn2CSnTe4Mg2SnCSn2CSnTe4Mg2SnCSn2CSnTe4Mg2SnCSn2CSnTe4Mg2SnCSn2CSnTe4Mg2SnCSn2CSnTe4Mg2SnCSn2CSnTe4Mg2SnCSn2CSnTe4Mg2SnCSn2CSnTe4Mg2SnCSn2CSnTe4Mg2SnCSn2CSnTe4Mg2
_chemical_formula_sum              "H224 C368 N16 O24 Sn64 Te64 Mg32"
_cell_length_a       47.5087
_cell_length_b       55.0028
_cell_length_c       17.2309
_cell_angle_alpha    155.513
_cell_angle_beta     84.8434
_cell_angle_gamma    91.3526

_symmetry_space_group_name_H-M    'P1'
_space_group_IT_number       1

loop_
  _space_group_symop_operation_xyz
  'x, y, z'

loop_
  _atom_site_type_symbol
  _atom_site_label
  _atom_site_symmetry_multiplicity
  _atom_site_fract_x
  _atom_site_fract_y
  _atom_site_fract_z
  _atom_site_occupancy
  H   H1        1.0  0.12136  0.03919  0.33090  1.0000
  H   H2        1.0  0.07464  0.21711  0.67750  1.0000
  H   H3        1.0  0.03899  0.18503  0.18442  1.0000
  H   H4        1.0  0.11232  0.19003  0.49209  1.0000
  H   H5        1.0  0.16196  0.01939  0.49363  1.0000
  H   H6        1.0  0.13332  0.98823  0.01614  1.0000
  H   H7        1.0  0.00080  0.02502  0.33414  1.0000
  H   H8        1.0  0.97101  0.08052  0.48632  1.0000
  H   H9        1.0  0.01091  0.13480  0.64300  1.0000
  H   H10       1.0  0.00614  0.12757  0.52099  1.0000
  H   H11       1.0  0.19231  0.06064  0.03609  1.0000
  H   H12       1.0  0.13176  0.17658  0.19036  1.0000
  H   H13       1.0  0.11351  0.16669  0.29727  1.0000
  H   H14       1.0  0.20285  0.10234  0.39066  1.0000
  H   H15       1.0  0.21956  0.72242  0.19677  1.0000
  H   H16       1.0  0.24627  0.72026  0.30432  1.0000
  H   H17       1.0  0.72379  0.41542  0.44816  1.0000
  H   H18       1.0  0.74842  0.39650  0.51043  1.0000
  H   H19       1.0  0.66030  0.30877  0.22711  1.0000
  H   H20       1.0  0.22732  0.24223  0.27292  1.0000
  H   H21       1.0  0.20318  0.23190  0.37237  1.0000
  H   H22       1.0  0.28244  0.14995  0.21546  1.0000
  H   H23       1.0  0.30646  0.15881  0.11014  1.0000
  H   H24       1.0  0.45408  0.44417  0.30441  1.0000
  H   H25       1.0  0.45874  0.39290  0.23275  1.0000
  H   H26       1.0  0.50464  0.38228  0.13235  1.0000
  H   H27       1.0  0.50731  0.42997  0.35132  1.0000
  H   H28       1.0  0.48506  0.59053  0.61501  1.0000
  H   H29       1.0  0.47296  0.52567  0.39355  1.0000
  H   H30       1.0  0.46817  0.63146  0.11280  1.0000
  H   H31       1.0  0.44369  0.61797  0.15345  1.0000
  H   H32       1.0  0.54731  0.44985  0.95508  1.0000
  H   H33       1.0  0.57380  0.40380  0.92663  1.0000
  H   H34       1.0  0.60745  0.40965  0.04171  1.0000
  H   H35       1.0  0.66160  0.54628  0.42114  1.0000
  H   H36       1.0  0.63518  0.59441  0.45873  1.0000
  H   H37       1.0  0.58335  0.78218  0.35959  1.0000
  H   H38       1.0  0.55763  0.75189  0.39479  1.0000
  H   H39       1.0  0.61613  0.75250  0.64757  1.0000
  H   H40       1.0  0.65822  0.57245  0.11098  1.0000
  H   H41       1.0  0.63090  0.54797  0.15840  1.0000
  H   H42       1.0  0.46646  0.53884  0.07821  1.0000
  H   H43       1.0  0.43522  0.62784  0.29135  1.0000
  H   H44       1.0  0.38662  0.67846  0.43219  1.0000
  H   H45       1.0  0.32203  0.65903  0.56203  1.0000
  H   H46       1.0  0.35625  0.58829  0.42125  1.0000
  H   H47       1.0  0.38995  0.49063  0.37858  1.0000
  H   H48       1.0  0.42710  0.55018  0.50791  1.0000
  H   H49       1.0  0.35360  0.42909  0.16987  1.0000
  H   H50       1.0  0.33752  0.40172  0.33763  1.0000
  H   H51       1.0  0.37424  0.46200  0.98199  1.0000
  H   H52       1.0  0.54864  0.55187  0.40138  1.0000
  H   H53       1.0  0.52982  0.58336  0.06228  1.0000
  H   H54       1.0  0.51425  0.65850  0.18073  1.0000
  H   H55       1.0  0.52929  0.62185  0.50176  1.0000
  H   H56       1.0  0.53702  0.50493  0.92033  1.0000
  H   H57       1.0  0.54777  0.44785  0.31144  1.0000
  H   H58       1.0  0.51514  0.52520  0.15296  1.0000
  H   H59       1.0  0.51338  0.57755  0.22902  1.0000
  H   H60       1.0  0.29711  0.65399  0.43206  1.0000
  H   H61       1.0  0.26768  0.69181  0.43692  1.0000
  H   H62       1.0  0.32840  0.81013  0.20928  1.0000
  H   H63       1.0  0.35868  0.76848  0.68917  1.0000
  H   H64       1.0  0.68873  0.61137  0.14720  1.0000
  H   H65       1.0  0.70676  0.61647  0.02557  1.0000
  H   H66       1.0  0.63356  0.74383  0.35519  1.0000
  H   H67       1.0  0.61413  0.73388  0.46209  1.0000
  H   H68       1.0  0.26260  0.73669  0.45203  1.0000
  H   H69       1.0  0.25612  0.29297  0.36003  1.0000
  H   H70       1.0  0.67106  0.73030  0.21973  1.0000
  H   H71       1.0  0.69721  0.44082  0.44063  1.0000
  H   H72       1.0  0.77412  0.38660  0.21366  1.0000
  H   H73       1.0  0.74935  0.39839  0.12922  1.0000
  H   H74       1.0  0.95902  0.10173  0.41372  1.0000
  H   H75       1.0  0.94155  0.04124  0.27247  1.0000
  H   H76       1.0  0.98002  0.04568  0.13312  1.0000
  H   H77       1.0  0.94211  0.04871  0.15171  1.0000
  H   H78       1.0  0.95288  0.96583  0.16848  1.0000
  H   H79       1.0  0.91652  0.05157  0.40229  1.0000
  H   H80       1.0  0.87684  0.11341  0.12961  1.0000
  H   H81       1.0  0.83633  0.09684  0.31223  1.0000
  H   H82       1.0  0.87342  0.01455  0.09922  1.0000
  H   H83       1.0  0.75468  0.24361  0.45517  1.0000
  H   H84       1.0  0.22013  0.86186  0.29885  1.0000
  H   H85       1.0  0.24744  0.85306  0.38503  1.0000
  H   H86       1.0  0.18867  0.74604  0.18904  1.0000
  H   H87       1.0  0.16149  0.75328  0.09601  1.0000
  H   H88       1.0  0.04963  0.87019  0.21983  1.0000
  H   H89       1.0  0.07378  0.83008  0.21674  1.0000
  H   H90       1.0  0.10434  0.84059  0.85297  1.0000
  H   H91       1.0  0.14481  0.99760  0.32184  1.0000
  H   H92       1.0  0.01771  0.93644  0.36722  1.0000
  H   H93       1.0  0.01853  0.99085  0.45276  1.0000
  H   H94       1.0  0.10353  0.85207  0.02104  1.0000
  H   H95       1.0  0.12376  0.82314  0.05925  1.0000
  H   H96       1.0  0.19752  0.90704  0.23003  1.0000
  H   H97       1.0  0.17775  0.93251  0.17902  1.0000
  H   H98       1.0  0.19529  0.87154  0.24614  1.0000
  H   H99       1.0  0.97398  0.88761  0.95547  1.0000
  H   H100      1.0  0.98500  0.83224  0.86203  1.0000
  H   H101      1.0  0.99660  0.95747  0.25343  1.0000
  H   H102      1.0  0.01907  0.91169  0.04899  1.0000
  H   H103      1.0  0.93582  0.85366  0.29467  1.0000
  H   H104      1.0  0.97274  0.90942  0.89059  1.0000
  H   H105      1.0  0.88943  0.82110  0.20870  1.0000
  H   H106      1.0  0.83360  0.85965  0.13815  1.0000
  H   H107      1.0  0.86878  0.91445  0.22680  1.0000
  H   H108      1.0  0.05433  0.92385  0.17217  1.0000
  H   H109      1.0  0.05654  0.86962  0.08836  1.0000
  H   H110      1.0  0.79556  0.71623  0.08915  1.0000
  H   H111      1.0  0.11977  0.04137  0.83693  1.0000
  H   H112      1.0  0.07343  0.21787  0.17858  1.0000
  H   H113      1.0  0.04020  0.18396  0.68240  1.0000
  H   H114      1.0  0.11079  0.19085  0.99299  1.0000
  H   H115      1.0  0.16359  0.01876  0.99427  1.0000
  H   H116      1.0  0.13204  0.98903  0.51657  1.0000
  H   H117      1.0  0.99875  0.02807  0.84472  1.0000
  H   H118      1.0  0.96960  0.08408  0.99543  1.0000
  H   H119      1.0  0.00976  0.13699  0.14859  1.0000
  H   H120      1.0  0.00519  0.12893  0.02418  1.0000
  H   H121      1.0  0.21073  0.06942  0.92481  1.0000
  H   H122      1.0  0.20571  0.09898  0.88479  1.0000
  H   H123      1.0  0.28524  0.87013  0.65305  1.0000
  H   H124      1.0  0.25792  0.87306  0.54830  1.0000
  H   H125      1.0  0.68419  0.29264  0.30014  1.0000
  H   H126      1.0  0.74547  0.60233  0.72313  1.0000
  H   H127      1.0  0.76266  0.63457  0.68771  1.0000
  H   H128      1.0  0.69853  0.78871  0.15825  1.0000
  H   H129      1.0  0.68276  0.75905  0.20129  1.0000
  H   H130      1.0  0.22487  0.24761  0.79322  1.0000
  H   H131      1.0  0.20274  0.23642  0.89221  1.0000
  H   H132      1.0  0.27927  0.12703  0.63355  1.0000
  H   H133      1.0  0.30082  0.13593  0.52557  1.0000
  H   H134      1.0  0.45391  0.43457  0.78633  1.0000
  H   H135      1.0  0.45963  0.38636  0.72641  1.0000
  H   H136      1.0  0.50566  0.38019  0.64186  1.0000
  H   H137      1.0  0.50598  0.43135  0.86869  1.0000
  H   H138      1.0  0.48757  0.57298  0.06321  1.0000
  H   H139      1.0  0.47441  0.51155  0.84546  1.0000
  H   H140      1.0  0.46548  0.64010  0.63293  1.0000
  H   H141      1.0  0.44094  0.62999  0.68487  1.0000
  H   H142      1.0  0.55265  0.44071  0.41122  1.0000
  H   H143      1.0  0.57713  0.39375  0.38350  1.0000
  H   H144      1.0  0.60821  0.39978  0.50623  1.0000
  H   H145      1.0  0.65992  0.54038  0.91288  1.0000
  H   H146      1.0  0.63575  0.58837  0.94605  1.0000
  H   H147      1.0  0.58483  0.78650  0.86558  1.0000
  H   H148      1.0  0.55807  0.76138  0.91685  1.0000
  H   H149      1.0  0.61456  0.75332  0.15477  1.0000
  H   H150      1.0  0.65993  0.57616  0.61793  1.0000
  H   H151      1.0  0.63392  0.54672  0.65042  1.0000
  H   H152      1.0  0.46850  0.55109  0.61445  1.0000
  H   H153      1.0  0.43619  0.64046  0.83302  1.0000
  H   H154      1.0  0.38694  0.68699  0.96128  1.0000
  H   H155      1.0  0.32183  0.65513  0.04771  1.0000
  H   H156      1.0  0.35666  0.58419  0.90377  1.0000
  H   H157      1.0  0.39231  0.47606  0.82632  1.0000
  H   H158      1.0  0.42967  0.53627  0.96246  1.0000
  H   H159      1.0  0.35540  0.41810  0.62389  1.0000
  H   H160      1.0  0.33903  0.39608  0.83609  1.0000
  H   H161      1.0  0.37307  0.46797  0.48927  1.0000
  H   H162      1.0  0.55045  0.53817  0.85677  1.0000
  H   H163      1.0  0.52769  0.59774  0.60763  1.0000
  H   H164      1.0  0.51280  0.67204  0.72278  1.0000
  H   H165      1.0  0.53175  0.60971  0.96358  1.0000
  H   H166      1.0  0.53925  0.50411  0.40661  1.0000
  H   H167      1.0  0.54645  0.45181  0.83745  1.0000
  H   H168      1.0  0.51913  0.52058  0.62964  1.0000
  H   H169      1.0  0.51778  0.57535  0.71556  1.0000
  H   H170      1.0  0.29809  0.65187  0.92281  1.0000
  H   H171      1.0  0.26853  0.68959  0.92770  1.0000
  H   H172      1.0  0.32987  0.80578  0.69279  1.0000
  H   H173      1.0  0.35712  0.77354  0.20832  1.0000
  H   H174      1.0  0.68875  0.61713  0.66144  1.0000
  H   H175      1.0  0.70574  0.62425  0.54532  1.0000
  H   H176      1.0  0.63197  0.75182  0.88185  1.0000
  H   H177      1.0  0.61336  0.73935  0.98164  1.0000
  H   H178      1.0  0.26285  0.73643  0.95058  1.0000
  H   H179      1.0  0.25976  0.29681  0.89569  1.0000
  H   H180      1.0  0.66957  0.73899  0.74563  1.0000
  H   H181      1.0  0.69297  0.42280  0.89327  1.0000
  H   H182      1.0  0.70622  0.24910  0.75920  1.0000
  H   H183      1.0  0.73084  0.23694  0.84190  1.0000
  H   H184      1.0  0.95960  0.10478  0.92023  1.0000
  H   H185      1.0  0.94035  0.04710  0.78795  1.0000
  H   H186      1.0  0.97901  0.04861  0.63991  1.0000
  H   H187      1.0  0.94109  0.05271  0.66307  1.0000
  H   H188      1.0  0.95487  0.96162  0.65972  1.0000
  H   H189      1.0  0.91911  0.04818  0.89472  1.0000
  H   H190      1.0  0.87369  0.11525  0.63413  1.0000
  H   H191      1.0  0.83519  0.09817  0.81758  1.0000
  H   H192      1.0  0.87269  0.01588  0.60203  1.0000
  H   H193      1.0  0.79303  0.11815  0.78075  1.0000
  H   H194      1.0  0.75806  0.18224  0.89528  1.0000
  H   H195      1.0  0.82483  0.27917  0.08273  1.0000
  H   H196      1.0  0.85927  0.21502  0.96671  1.0000
  H   H197      1.0  0.75040  0.23636  0.93959  1.0000
  H   H198      1.0  0.05023  0.87015  0.71958  1.0000
  H   H199      1.0  0.07376  0.82973  0.71637  1.0000
  H   H200      1.0  0.10463  0.84152  0.35433  1.0000
  H   H201      1.0  0.14386  0.00017  0.82840  1.0000
  H   H202      1.0  0.01882  0.93700  0.86920  1.0000
  H   H203      1.0  0.01991  0.99079  0.95213  1.0000
  H   H204      1.0  0.10362  0.85458  0.52804  1.0000
  H   H205      1.0  0.12417  0.82577  0.56607  1.0000
  H   H206      1.0  0.19838  0.90720  0.72628  1.0000
  H   H207      1.0  0.17802  0.93327  0.67792  1.0000
  H   H208      1.0  0.19623  0.87276  0.74685  1.0000
  H   H209      1.0  0.97480  0.88041  0.43803  1.0000
  H   H210      1.0  0.98614  0.82778  0.35580  1.0000
  H   H211      1.0  0.99726  0.95398  0.74290  1.0000
  H   H212      1.0  0.01981  0.90708  0.53657  1.0000
  H   H213      1.0  0.93737  0.84906  0.78261  1.0000
  H   H214      1.0  0.97108  0.91428  0.40334  1.0000
  H   H215      1.0  0.89055  0.81777  0.70095  1.0000
  H   H216      1.0  0.83494  0.85695  0.63182  1.0000
  H   H217      1.0  0.87006  0.91256  0.72400  1.0000
  H   H218      1.0  0.05507  0.92266  0.66855  1.0000
  H   H219      1.0  0.05785  0.86940  0.58892  1.0000
  H   H220      1.0  0.80196  0.86636  0.77739  1.0000
  H   H221      1.0  0.76895  0.83311  0.78368  1.0000
  H   H222      1.0  0.83623  0.70036  0.46397  1.0000
  H   H223      1.0  0.86924  0.73383  0.45729  1.0000
  H   H224      1.0  0.79635  0.71301  0.58019  1.0000
  C   C1        1.0  0.26909  0.20384  0.19202  1.0000
  C   C2        1.0  0.68963  0.36429  0.33471  1.0000
  C   C3        1.0  0.23652  0.79757  0.36130  1.0000
  C   C4        1.0  0.23367  0.75554  0.29847  1.0000
  C   C5        1.0  0.24897  0.75429  0.36005  1.0000
  C   C6        1.0  0.71462  0.38899  0.41697  1.0000
  C   C7        1.0  0.72861  0.37842  0.45342  1.0000
  C   C8        1.0  0.71827  0.34341  0.41240  1.0000
  C   C9        1.0  0.67963  0.32824  0.28977  1.0000
  C   C10       1.0  0.23971  0.22346  0.26479  1.0000
  C   C11       1.0  0.22606  0.21770  0.32176  1.0000
  C   C12       1.0  0.24097  0.19209  0.30903  1.0000
  C   C13       1.0  0.27010  0.17008  0.22811  1.0000
  C   C14       1.0  0.28382  0.17533  0.16922  1.0000
  C   C15       1.0  0.46507  0.43418  0.32830  1.0000
  C   C16       1.0  0.49715  0.42658  0.28699  1.0000
  C   C17       1.0  0.48018  0.56741  0.49555  1.0000
  C   C18       1.0  0.45637  0.60667  0.57214  1.0000
  C   C19       1.0  0.59932  0.47462  0.14155  1.0000
  C   C20       1.0  0.60553  0.53011  0.27083  1.0000
  C   C21       1.0  0.58848  0.55901  0.29828  1.0000
  C   C22       1.0  0.56824  0.52891  0.18012  1.0000
  C   C23       1.0  0.56336  0.47240  0.04403  1.0000
  C   C24       1.0  0.57811  0.44654  0.02823  1.0000
  C   C25       1.0  0.61358  0.45033  0.13478  1.0000
  C   C26       1.0  0.63496  0.47692  0.24178  1.0000
  C   C27       1.0  0.64357  0.52705  0.34749  1.0000
  C   C28       1.0  0.62890  0.55417  0.36774  1.0000
  C   C29       1.0  0.58999  0.62189  0.45882  1.0000
  C   C30       1.0  0.60732  0.63631  0.43339  1.0000
  C   C31       1.0  0.60484  0.69601  0.57865  1.0000
  C   C32       1.0  0.58625  0.73623  0.24463  1.0000
  C   C33       1.0  0.57185  0.71969  0.26436  1.0000
  C   C34       1.0  0.57425  0.65942  0.11135  1.0000
  C   C35       1.0  0.61950  0.70772  0.54017  1.0000
  C   C36       1.0  0.63761  0.66338  0.36915  1.0000
  C   C37       1.0  0.64278  0.60677  0.23953  1.0000
  C   C38       1.0  0.62755  0.59281  0.26637  1.0000
  C   C39       1.0  0.39978  0.61824  0.34760  1.0000
  C   C40       1.0  0.39098  0.58905  0.33272  1.0000
  C   C41       1.0  0.41019  0.54208  0.22555  1.0000
  C   C42       1.0  0.43589  0.52235  0.12476  1.0000
  C   C43       1.0  0.44530  0.55362  0.14961  1.0000
  C   C44       1.0  0.42790  0.60195  0.26494  1.0000
  C   C45       1.0  0.37998  0.65995  0.43418  1.0000
  C   C46       1.0  0.35172  0.67273  0.50219  1.0000
  C   C47       1.0  0.34368  0.64700  0.50003  1.0000
  C   C48       1.0  0.36283  0.60746  0.42159  1.0000
  C   C49       1.0  0.40520  0.52070  0.24393  1.0000
  C   C50       1.0  0.38475  0.48304  0.15868  1.0000
  C   C51       1.0  0.37899  0.47236  0.20932  1.0000
  C   C52       1.0  0.39457  0.49795  0.33783  1.0000
  C   C53       1.0  0.41550  0.53164  0.41103  1.0000
  C   C54       1.0  0.42112  0.54271  0.36297  1.0000
  C   C55       1.0  0.35793  0.43666  0.12982  1.0000
  C   C56       1.0  0.34348  0.40928  0.99732  1.0000
  C   C57       1.0  0.35011  0.41782  0.94113  1.0000
  C   C58       1.0  0.36974  0.45455  0.02234  1.0000
  C   C59       1.0  0.52895  0.58312  0.50389  1.0000
  C   C60       1.0  0.53227  0.62316  0.06351  1.0000
  C   C61       1.0  0.53011  0.48845  0.92991  1.0000
  C   C62       1.0  0.52632  0.53821  0.13611  1.0000
  C   C63       1.0  0.64982  0.67156  0.31260  1.0000
  C   C64       1.0  0.33101  0.70575  0.54965  1.0000
  C   C65       1.0  0.30417  0.68754  0.49042  1.0000
  C   C66       1.0  0.28776  0.70843  0.49148  1.0000
  C   C67       1.0  0.29714  0.74897  0.55372  1.0000
  C   C68       1.0  0.32252  0.77219  0.63349  1.0000
  C   C69       1.0  0.33892  0.75092  0.63098  1.0000
  C   C70       1.0  0.67596  0.63884  0.18782  1.0000
  C   C71       1.0  0.68644  0.64231  0.12055  1.0000
  C   C72       1.0  0.67157  0.68063  0.18012  1.0000
  C   C73       1.0  0.64572  0.71469  0.30938  1.0000
  C   C74       1.0  0.63489  0.70960  0.37154  1.0000
  C   C75       1.0  0.28103  0.76037  0.51977  1.0000
  C   C76       1.0  0.28514  0.79515  0.05625  1.0000
  C   C77       1.0  0.30666  0.83308  0.16038  1.0000
  C   C78       1.0  0.27569  0.26652  0.25782  1.0000
  C   C79       1.0  0.28454  0.21694  0.15504  1.0000
  C   C80       1.0  0.31049  0.17917  0.02286  1.0000
  C   C81       1.0  0.68165  0.68993  0.12695  1.0000
  C   C82       1.0  0.69994  0.66448  0.50305  1.0000
  C   C83       1.0  0.71264  0.60688  0.35672  1.0000
  C   C84       1.0  0.67999  0.41549  0.35725  1.0000
  C   C85       1.0  0.67423  0.37467  0.29412  1.0000
  C   C86       1.0  0.64215  0.33453  0.68241  1.0000
  C   C87       1.0  0.75479  0.31067  0.03442  1.0000
  C   C88       1.0  0.18803  0.80888  0.19184  1.0000
  C   C89       1.0  0.75927  0.35616  0.11342  1.0000
  C   C90       1.0  0.74540  0.36242  0.06382  1.0000
  C   C91       1.0  0.72605  0.32417  0.93465  1.0000
  C   C92       1.0  0.21263  0.83667  0.27496  1.0000
  C   C93       1.0  0.22831  0.83180  0.32522  1.0000
  C   C94       1.0  0.22044  0.79925  0.29675  1.0000
  C   C95       1.0  0.19618  0.77058  0.21034  1.0000
  C   C96       1.0  0.18043  0.77518  0.15911  1.0000
  C   C97       1.0  0.97922  0.88007  0.99374  1.0000
  C   C98       1.0  0.00436  0.91123  0.10103  1.0000
  C   C99       1.0  0.96078  0.05292  0.27279  1.0000
  C   C100      1.0  0.96198  0.03079  0.12493  1.0000
  C   C101      1.0  0.09460  0.90651  0.95742  1.0000
  C   C102      1.0  0.09880  0.96422  0.09650  1.0000
  C   C103      1.0  0.08422  0.98832  0.10275  1.0000
  C   C104      1.0  0.06755  0.95357  0.96383  1.0000
  C   C105      1.0  0.06293  0.89670  0.32594  1.0000
  C   C106      1.0  0.07632  0.87432  0.32465  1.0000
  C   C107      1.0  0.10792  0.88431  0.95937  1.0000
  C   C108      1.0  0.12576  0.91632  0.08946  1.0000
  C   C109      1.0  0.13088  0.97201  0.21964  1.0000
  C   C110      1.0  0.11761  0.99574  0.22575  1.0000
  C   C111      1.0  0.08367  0.05155  0.26370  1.0000
  C   C112      1.0  0.10430  0.07104  0.26511  1.0000
  C   C113      1.0  0.09992  0.13055  0.40924  1.0000
  C   C114      1.0  0.07702  0.17116  0.56252  1.0000
  C   C115      1.0  0.05765  0.15254  0.56428  1.0000
  C   C116      1.0  0.06012  0.09207  0.40968  1.0000
  C   C117      1.0  0.11702  0.14578  0.38704  1.0000
  C   C118      1.0  0.13862  0.10500  0.23208  1.0000
  C   C119      1.0  0.14559  0.04979  0.10895  1.0000
  C   C120      1.0  0.12875  0.03251  0.12130  1.0000
  C   C121      1.0  0.89501  0.04621  0.50131  1.0000
  C   C122      1.0  0.89489  0.01567  0.48546  1.0000
  C   C123      1.0  0.91628  0.96606  0.35063  1.0000
  C   C124      1.0  0.93637  0.94719  0.23274  1.0000
  C   C125      1.0  0.93689  0.97915  0.25510  1.0000
  C   C126      1.0  0.91657  0.02734  0.38627  1.0000
  C   C127      1.0  0.87605  0.09230  0.12492  1.0000
  C   C128      1.0  0.85377  0.11147  0.23654  1.0000
  C   C129      1.0  0.85328  0.08193  0.22358  1.0000
  C   C130      1.0  0.87416  0.03552  0.10344  1.0000
  C   C131      1.0  0.91973  0.93596  0.33892  1.0000
  C   C132      1.0  0.89944  0.90156  0.27592  1.0000
  C   C133      1.0  0.90539  0.87242  0.26314  1.0000
  C   C134      1.0  0.93154  0.87662  0.30738  1.0000
  C   C135      1.0  0.95088  0.90963  0.36700  1.0000
  C   C136      1.0  0.94473  0.93990  0.38567  1.0000
  C   C137      1.0  0.88492  0.84056  0.20922  1.0000
  C   C138      1.0  0.85887  0.83655  0.16864  1.0000
  C   C139      1.0  0.85349  0.86383  0.17527  1.0000
  C   C140      1.0  0.87323  0.89459  0.22488  1.0000
  C   C141      1.0  0.99107  0.05834  0.39163  1.0000
  C   C142      1.0  0.01166  0.10287  0.50182  1.0000
  C   C143      1.0  0.04219  0.90557  0.16861  1.0000
  C   C144      1.0  0.03141  0.95347  0.36992  1.0000
  C   C145      1.0  0.13875  0.89558  0.10045  1.0000
  C   C146      1.0  0.15163  0.11428  0.18006  1.0000
  C   C147      1.0  0.12448  0.86307  0.06285  1.0000
  C   C148      1.0  0.13591  0.84678  0.08509  1.0000
  C   C149      1.0  0.16246  0.86287  0.14829  1.0000
  C   C150      1.0  0.17681  0.89514  0.18465  1.0000
  C   C151      1.0  0.16554  0.91014  0.15831  1.0000
  C   C152      1.0  0.17893  0.08593  0.06983  1.0000
  C   C153      1.0  0.14558  0.15257  0.16031  1.0000
  C   C154      1.0  0.13527  0.14718  0.22181  1.0000
  C   C155      1.0  0.77445  0.26272  0.51188  1.0000
  C   C156      1.0  0.77213  0.30124  0.07414  1.0000
  C   C157      1.0  0.79322  0.33973  0.18959  1.0000
  C   C158      1.0  0.78451  0.75411  0.17027  1.0000
  C   C159      1.0  0.76106  0.78341  0.29853  1.0000
  C   C160      1.0  0.74497  0.83540  0.42172  1.0000
  C   C161      1.0  0.18391  0.13455  0.49910  1.0000
  C   C162      1.0  0.17749  0.17628  0.56493  1.0000
  C   C163      1.0  0.15429  0.22306  0.71548  1.0000
  C   C164      1.0  0.17639  0.84977  0.18061  1.0000
  C   C165      1.0  0.17060  0.81487  0.14196  1.0000
  C   C166      1.0  0.14739  0.78129  0.04782  1.0000
  C   C167      1.0  0.26811  0.79520  0.48861  1.0000
  C   C168      1.0  0.26501  0.19510  0.66021  1.0000
  C   C169      1.0  0.27078  0.83763  0.55319  1.0000
  C   C170      1.0  0.25534  0.83884  0.49181  1.0000
  C   C171      1.0  0.69346  0.31840  0.32875  1.0000
  C   C172      1.0  0.71233  0.67714  0.96268  1.0000
  C   C173      1.0  0.73510  0.64341  0.81931  1.0000
  C   C174      1.0  0.74472  0.66164  0.79858  1.0000
  C   C175      1.0  0.73172  0.71391  0.91736  1.0000
  C   C176      1.0  0.70947  0.74821  0.06348  1.0000
  C   C177      1.0  0.70019  0.73076  0.08675  1.0000
  C   C178      1.0  0.23710  0.22238  0.76225  1.0000
  C   C179      1.0  0.22471  0.21629  0.81952  1.0000
  C   C180      1.0  0.23961  0.18334  0.78033  1.0000
  C   C181      1.0  0.26699  0.15339  0.66883  1.0000
  C   C182      1.0  0.27936  0.15846  0.60769  1.0000
  C   C183      1.0  0.46458  0.42815  0.82164  1.0000
  C   C184      1.0  0.49665  0.42462  0.79419  1.0000
  C   C185      1.0  0.48220  0.55355  0.95234  1.0000
  C   C186      1.0  0.45871  0.59659  0.04406  1.0000
  C   C187      1.0  0.60123  0.46591  0.61010  1.0000
  C   C188      1.0  0.60728  0.52248  0.74593  1.0000
  C   C189      1.0  0.59119  0.55179  0.77292  1.0000
  C   C190      1.0  0.57205  0.52140  0.64936  1.0000
  C   C191      1.0  0.56756  0.46374  0.50611  1.0000
  C   C192      1.0  0.58133  0.43725  0.48990  1.0000
  C   C193      1.0  0.61417  0.44142  0.60485  1.0000
  C   C194      1.0  0.63396  0.46926  0.72116  1.0000
  C   C195      1.0  0.64278  0.52042  0.83298  1.0000
  C   C196      1.0  0.62944  0.54742  0.85062  1.0000
  C   C197      1.0  0.59196  0.61554  0.93946  1.0000
  C   C198      1.0  0.60869  0.63298  0.92332  1.0000
  C   C199      1.0  0.60487  0.69339  0.07327  1.0000
  C   C200      1.0  0.58681  0.74111  0.75434  1.0000
  C   C201      1.0  0.57182  0.72745  0.78292  1.0000
  C   C202      1.0  0.57305  0.66798  0.63513  1.0000
  C   C203      1.0  0.61896  0.70809  0.04391  1.0000
  C   C204      1.0  0.63767  0.66598  0.87718  1.0000
  C   C205      1.0  0.64403  0.60872  0.74309  1.0000
  C   C206      1.0  0.62955  0.59194  0.76138  1.0000
  C   C207      1.0  0.40053  0.62423  0.86601  1.0000
  C   C208      1.0  0.39179  0.59110  0.83630  1.0000
  C   C209      1.0  0.41142  0.54376  0.72582  1.0000
  C   C210      1.0  0.43766  0.52819  0.63750  1.0000
  C   C211      1.0  0.44700  0.56352  0.67826  1.0000
  C   C212      1.0  0.42906  0.61188  0.79602  1.0000
  C   C213      1.0  0.38026  0.66571  0.95320  1.0000
  C   C214      1.0  0.35172  0.67484  0.00875  1.0000
  C   C215      1.0  0.34375  0.64576  0.99437  1.0000
  C   C216      1.0  0.36325  0.60610  0.91419  1.0000
  C   C217      1.0  0.40639  0.51821  0.72993  1.0000
  C   C218      1.0  0.38546  0.48073  0.64242  1.0000
  C   C219      1.0  0.38029  0.46543  0.67841  1.0000
  C   C220      1.0  0.39651  0.48690  0.79671  1.0000
  C   C221      1.0  0.41759  0.52085  0.87339  1.0000
  C   C222      1.0  0.42275  0.53635  0.83949  1.0000
  C   C223      1.0  0.35923  0.42898  0.59426  1.0000
  C   C224      1.0  0.34393  0.40575  0.47232  1.0000
  C   C225      1.0  0.34939  0.41990  0.43366  1.0000
  C   C226      1.0  0.36929  0.45686  0.51814  1.0000
  C   C227      1.0  0.53087  0.56960  0.96073  1.0000
  C   C228      1.0  0.53039  0.63588  0.60284  1.0000
  C   C229      1.0  0.53228  0.48683  0.41332  1.0000
  C   C230      1.0  0.53021  0.53441  0.61551  1.0000
  C   C231      1.0  0.64939  0.67662  0.82793  1.0000
  C   C232      1.0  0.33079  0.70734  0.05489  1.0000
  C   C233      1.0  0.30457  0.68695  0.98731  1.0000
  C   C234      1.0  0.28813  0.70769  0.98796  1.0000
  C   C235      1.0  0.29693  0.74994  0.05691  1.0000
  C   C236      1.0  0.32158  0.77518  0.14457  1.0000
  C   C237      1.0  0.33794  0.75429  0.14345  1.0000
  C   C238      1.0  0.67555  0.64493  0.70436  1.0000
  C   C239      1.0  0.68546  0.64955  0.64020  1.0000
  C   C240      1.0  0.67011  0.68835  0.70276  1.0000
  C   C241      1.0  0.64442  0.72202  0.83280  1.0000
  C   C242      1.0  0.63407  0.71551  0.89103  1.0000
  C   C243      1.0  0.28095  0.76100  0.02165  1.0000
  C   C244      1.0  0.28548  0.79381  0.55176  1.0000
  C   C245      1.0  0.30756  0.83038  0.65091  1.0000
  C   C246      1.0  0.27473  0.26798  0.77217  1.0000
  C   C247      1.0  0.27933  0.21044  0.62909  1.0000
  C   C248      1.0  0.29866  0.16575  0.45755  1.0000
  C   C249      1.0  0.67980  0.69796  0.65016  1.0000
  C   C250      1.0  0.70233  0.65713  0.98260  1.0000
  C   C251      1.0  0.71517  0.59991  0.83821  1.0000
  C   C252      1.0  0.67413  0.40213  0.82447  1.0000
  C   C253      1.0  0.66648  0.36426  0.77197  1.0000
  C   C254      1.0  0.65304  0.33722  0.17637  1.0000
  C   C255      1.0  0.72093  0.27980  0.86014  1.0000
  C   C256      1.0  0.73498  0.27297  0.90778  1.0000
  C   C257      1.0  0.98021  0.87521  0.48342  1.0000
  C   C258      1.0  0.00526  0.90749  0.59162  1.0000
  C   C259      1.0  0.96014  0.05621  0.78117  1.0000
  C   C260      1.0  0.96103  0.03402  0.63314  1.0000
  C   C261      1.0  0.09417  0.90750  0.45952  1.0000
  C   C262      1.0  0.09791  0.96548  0.59953  1.0000
  C   C263      1.0  0.08309  0.98924  0.60505  1.0000
  C   C264      1.0  0.06646  0.95417  0.46558  1.0000
  C   C265      1.0  0.06360  0.89634  0.82497  1.0000
  C   C266      1.0  0.07665  0.87377  0.82356  1.0000
  C   C267      1.0  0.10784  0.88549  0.46161  1.0000
  C   C268      1.0  0.12558  0.91793  0.59272  1.0000
  C   C269      1.0  0.13011  0.97411  0.72479  1.0000
  C   C270      1.0  0.11648  0.99759  0.73053  1.0000
  C   C271      1.0  0.08237  0.05238  0.76519  1.0000
  C   C272      1.0  0.10286  0.07172  0.76553  1.0000
  C   C273      1.0  0.09850  0.13121  0.90956  1.0000
  C   C274      1.0  0.07572  0.17191  0.06350  1.0000
  C   C275      1.0  0.05639  0.15342  0.06586  1.0000
  C   C276      1.0  0.05889  0.09300  0.91175  1.0000
  C   C277      1.0  0.11548  0.14647  0.88719  1.0000
  C   C278      1.0  0.13695  0.10570  0.73155  1.0000
  C   C279      1.0  0.14394  0.05044  0.60832  1.0000
  C   C280      1.0  0.12726  0.03322  0.62126  1.0000
  C   C281      1.0  0.89706  0.04375  0.99601  1.0000
  C   C282      1.0  0.89639  0.01336  0.98073  1.0000
  C   C283      1.0  0.91758  0.96345  0.84576  1.0000
  C   C284      1.0  0.93775  0.94384  0.72612  1.0000
  C   C285      1.0  0.93876  0.97555  0.74765  1.0000
  C   C286      1.0  0.91876  0.02422  0.87964  1.0000
  C   C287      1.0  0.87360  0.09421  0.62970  1.0000
  C   C288      1.0  0.85170  0.11292  0.74130  1.0000
  C   C289      1.0  0.85183  0.08339  0.72834  1.0000
  C   C290      1.0  0.87297  0.03720  0.60748  1.0000
  C   C291      1.0  0.92093  0.93340  0.83427  1.0000
  C   C292      1.0  0.90065  0.89899  0.77113  1.0000
  C   C293      1.0  0.90667  0.86924  0.75616  1.0000
  C   C294      1.0  0.93300  0.87255  0.79729  1.0000
  C   C295      1.0  0.95237  0.90553  0.85688  1.0000
  C   C296      1.0  0.94608  0.93662  0.87859  1.0000
  C   C297      1.0  0.88611  0.83745  0.70219  1.0000
  C   C298      1.0  0.86006  0.83371  0.66216  1.0000
  C   C299      1.0  0.85474  0.86120  0.66949  1.0000
  C   C300      1.0  0.87448  0.89222  0.72040  1.0000
  C   C301      1.0  0.98967  0.06086  0.89901  1.0000
  C   C302      1.0  0.01059  0.10462  0.00656  1.0000
  C   C303      1.0  0.04325  0.90477  0.66710  1.0000
  C   C304      1.0  0.03260  0.95336  0.86961  1.0000
  C   C305      1.0  0.13893  0.89710  0.60304  1.0000
  C   C306      1.0  0.82911  0.15977  0.85565  1.0000
  C   C307      1.0  0.83866  0.80533  0.62814  1.0000
  C   C308      1.0  0.79992  0.15396  0.84937  1.0000
  C   C309      1.0  0.78025  0.18995  0.91316  1.0000
  C   C310      1.0  0.78875  0.23385  0.98904  1.0000
  C   C311      1.0  0.81744  0.24435  0.01752  1.0000
  C   C312      1.0  0.83701  0.20791  0.95131  1.0000
  C   C313      1.0  0.80958  0.82987  0.70828  1.0000
  C   C314      1.0  0.79087  0.81130  0.71307  1.0000
  C   C315      1.0  0.80051  0.76651  0.63504  1.0000
  C   C316      1.0  0.82875  0.73710  0.53398  1.0000
  C   C317      1.0  0.84740  0.75617  0.53136  1.0000
  C   C318      1.0  0.12473  0.86507  0.56753  1.0000
  C   C319      1.0  0.13638  0.84876  0.58942  1.0000
  C   C320      1.0  0.16318  0.86413  0.64950  1.0000
  C   C321      1.0  0.17749  0.89580  0.68328  1.0000
  C   C322      1.0  0.16592  0.91105  0.65809  1.0000
  C   C323      1.0  0.18936  0.09095  0.00714  1.0000
  C   C324      1.0  0.17323  0.12515  0.05310  1.0000
  C   C325      1.0  0.76922  0.25861  0.00564  1.0000
  C   C326      1.0  0.77871  0.30437  0.57689  1.0000
  C   C327      1.0  0.80161  0.33863  0.67709  1.0000
  C   C328      1.0  0.78543  0.75143  0.66363  1.0000
  C   C329      1.0  0.76214  0.78067  0.79240  1.0000
  C   C330      1.0  0.74622  0.83325  0.91834  1.0000
  C   C331      1.0  0.18649  0.13059  0.99078  1.0000
  C   C332      1.0  0.17974  0.17162  0.05395  1.0000
  C   C333      1.0  0.15659  0.21851  0.20509  1.0000
  C   C334      1.0  0.17725  0.85114  0.68207  1.0000
  C   C335      1.0  0.17142  0.81654  0.64463  1.0000
  C   C336      1.0  0.14832  0.78266  0.54943  1.0000
  N   N1        1.0  0.32358  0.86590  0.24836  1.0000
  N   N2        1.0  0.33157  0.14673  0.91182  1.0000
  N   N3        1.0  0.62226  0.30931  0.60990  1.0000
  N   N4        1.0  0.72331  0.55872  0.22946  1.0000
  N   N5        1.0  0.80946  0.37374  0.29079  1.0000
  N   N6        1.0  0.73103  0.87803  0.52481  1.0000
  N   N7        1.0  0.12879  0.75239  0.96882  1.0000
  N   N8        1.0  0.13590  0.26308  0.84107  1.0000
  N   N9        1.0  0.32502  0.86196  0.73469  1.0000
  N   N10       1.0  0.31381  0.12762  0.31220  1.0000
  N   N11       1.0  0.63607  0.30503  0.07809  1.0000
  N   N12       1.0  0.72568  0.55199  0.71344  1.0000
  N   N13       1.0  0.81963  0.36890  0.76396  1.0000
  N   N14       1.0  0.73254  0.87642  0.02354  1.0000
  N   N15       1.0  0.12991  0.75328  0.46895  1.0000
  N   N16       1.0  0.13840  0.25887  0.33202  1.0000
  O   O1        1.0  0.45297  0.47415  0.01194  1.0000
  O   O2        1.0  0.50565  0.55191  0.39956  1.0000
  O   O3        1.0  0.55867  0.64610  0.14077  1.0000
  O   O4        1.0  0.44153  0.57591  0.43013  1.0000
  O   O5        1.0  0.50437  0.47105  0.36155  1.0000
  O   O6        1.0  0.55295  0.55777  0.20755  1.0000
  O   O7        1.0  0.95436  0.89588  0.09390  1.0000
  O   O8        1.0  0.98576  0.02692  0.23213  1.0000
  O   O9        1.0  0.03975  0.06952  0.39233  1.0000
  O   O10       1.0  0.96713  0.96717  0.93315  1.0000
  O   O11       1.0  0.01878  0.87896  0.06687  1.0000
  O   O12       1.0  0.05563  0.97856  0.97274  1.0000
  O   O13       1.0  0.45577  0.47987  0.51991  1.0000
  O   O14       1.0  0.50736  0.53905  0.85797  1.0000
  O   O15       1.0  0.55715  0.65812  0.67553  1.0000
  O   O16       1.0  0.44313  0.57065  0.91322  1.0000
  O   O17       1.0  0.50311  0.46840  0.86483  1.0000
  O   O18       1.0  0.55748  0.55096  0.67802  1.0000
  O   O19       1.0  0.95541  0.89214  0.58672  1.0000
  O   O20       1.0  0.98443  0.02870  0.73780  1.0000
  O   O21       1.0  0.03858  0.07085  0.89636  1.0000
  O   O22       1.0  0.96571  0.97050  0.44004  1.0000
  O   O23       1.0  0.01987  0.87720  0.56443  1.0000
  O   O24       1.0  0.05424  0.97917  0.47489  1.0000
  C  Sn1       1.0  0.67506  0.46972  0.88466  1.0000
  C   C337      1.0  0.66054  0.44225  0.86556  1.0000
  C  Sn2       1.0  0.63801  0.41171  0.76223  1.0000
  C  Sn3       1.0  0.62984  0.40852  0.67607  1.0000
  C   C338      1.0  0.64436  0.43597  0.69516  1.0000
  C  Sn4       1.0  0.66689  0.46653  0.79850  1.0000
  O  Te1       1.0  0.69752  0.50001  0.98859  1.0000
  O  Te2       1.0  0.62381  0.38463  0.74517  1.0000
  O  Te3       1.0  0.60736  0.37820  0.57208  1.0000
  O  Te4       1.0  0.68109  0.49359  0.81555  1.0000
  Mg  Mg1       1.0  0.59459  0.34852  0.58921  1.0000
  Mg  Mg2       1.0  0.71032  0.52968  0.97139  1.0000
  C  Sn5       1.0  0.25747  0.14043  0.85657  1.0000
  C   C339      1.0  0.23347  0.17730  0.99725  1.0000
  C  Sn6       1.0  0.24156  0.93110  0.06251  1.0000
  C  Sn7       1.0  0.22413  0.21722  0.98547  1.0000
  C   C340      1.0  0.24811  0.18036  0.84486  1.0000
  C  Sn8       1.0  0.26486  0.14196  0.77953  1.0000
  O  Te5       1.0  0.27389  0.10240  0.79345  1.0000
  O  Te6       1.0  0.21768  0.96755  0.20332  1.0000
  O  Te7       1.0  0.23251  0.97070  0.04872  1.0000
  O  Te8       1.0  0.28872  0.10551  0.63880  1.0000
  Mg  Mg3       1.0  0.20200  0.01178  0.24275  1.0000
  Mg  Mg4       1.0  0.30441  0.06125  0.59919  1.0000
  C  Sn9       1.0  0.26067  0.85453  0.10097  1.0000
  C   C341      1.0  0.26210  0.81286  0.03946  1.0000
  C  Sn10      1.0  0.22735  0.04325  0.87291  1.0000
  C  Sn11      1.0  0.21576  0.03040  0.76550  1.0000
  C   C342      1.0  0.21434  0.07204  0.82699  1.0000
  C  Sn12      1.0  0.22426  0.12627  0.99356  1.0000
  O  Te9       1.0  0.27073  0.90842  0.26790  1.0000
  O  Te10      1.0  0.22899  0.00231  0.81432  1.0000
  O  Te11      1.0  0.20570  0.97645  0.59846  1.0000
  O  Te12      1.0  0.24744  0.88259  0.05214  1.0000
  Mg  Mg5       1.0  0.21253  0.93504  0.57711  1.0000
  Mg  Mg6       1.0  0.26391  0.94987  0.28926  1.0000
  C  Sn13      1.0  0.15782  0.14005  0.67628  1.0000
  C   C343      1.0  0.17140  0.10854  0.64372  1.0000
  C  Sn14      1.0  0.20083  0.09004  0.58099  1.0000
  C  Sn15      1.0  0.21701  0.10335  0.55027  1.0000
  C   C344      1.0  0.20342  0.13485  0.58286  1.0000
  C  Sn16      1.0  0.17400  0.15336  0.64557  1.0000
  O  Te13      1.0  0.12838  0.15811  0.73898  1.0000
  O  Te14      1.0  0.21393  0.05858  0.54934  1.0000
  O  Te15      1.0  0.24647  0.08525  0.48752  1.0000
  O  Te16      1.0  0.16089  0.18481  0.67723  1.0000
  Mg  Mg7       1.0  0.25458  0.04358  0.46446  1.0000
  Mg  Mg8       1.0  0.12025  0.19986  0.76221  1.0000
  C  Sn17      1.0  0.17810  0.78767  0.71860  1.0000
  C   C345      1.0  0.18370  0.81665  0.73280  1.0000
  C  Sn18      1.0  0.21029  0.83508  0.76782  1.0000
  C  Sn19      1.0  0.23174  0.82430  0.78897  1.0000
  C   C346      1.0  0.22614  0.79533  0.77474  1.0000
  C  Sn20      1.0  0.19955  0.77689  0.73976  1.0000
  O  Te17      1.0  0.15136  0.76962  0.68352  1.0000
  O  Te18      1.0  0.21538  0.86399  0.78149  1.0000
  O  Te19      1.0  0.25849  0.84238  0.82409  1.0000
  O  Te20      1.0  0.19445  0.74799  0.72605  1.0000
  Mg  Mg9       1.0  0.25518  0.88006  0.83064  1.0000
  Mg  Mg10      1.0  0.15467  0.73188  0.67681  1.0000
  C  Sn21      1.0  0.22915  0.14929  0.38427  1.0000
  C   C347      1.0  0.20389  0.18363  0.51460  1.0000
  C  Sn22      1.0  0.18702  0.21953  0.57027  1.0000
  C  Sn23      1.0  0.19557  0.22113  0.49400  1.0000
  C   C348      1.0  0.22081  0.18680  0.36373  1.0000
  C  Sn24      1.0  0.23770  0.15088  0.30800  1.0000
  O  Te21      1.0  0.24568  0.11371  0.33063  1.0000
  O  Te22      1.0  0.16187  0.25348  0.70081  1.0000
  O  Te23      1.0  0.17901  0.25674  0.54776  1.0000
  O  Te24      1.0  0.26284  0.11694  0.17752  1.0000
  Mg  Mg11      1.0  0.14655  0.29492  0.72971  1.0000
  Mg  Mg12      1.0  0.27816  0.07547  0.14845  1.0000
  C  Sn25      1.0  0.68359  0.29806  0.76163  1.0000
  C   C349      1.0  0.71012  0.31303  0.82018  1.0000
  C  Sn26      1.0  0.72330  0.35230  0.88593  1.0000
  C  Sn27      1.0  0.70966  0.37717  0.89345  1.0000
  C   C350      1.0  0.68314  0.36221  0.83496  1.0000
  C  Sn28      1.0  0.66995  0.32293  0.76915  1.0000
  O  Te25      1.0  0.67080  0.25870  0.69641  1.0000
  O  Te26      1.0  0.74984  0.36658  0.94364  1.0000
  O  Te27      1.0  0.72247  0.41655  0.95874  1.0000
  O  Te28      1.0  0.64342  0.30865  0.71150  1.0000
  Mg  Mg13      1.0  0.78349  0.13773  0.02168  1.0000
  Mg  Mg14      1.0  0.63457  0.25295  0.63353  1.0000
  C  Sn29      1.0  0.30304  0.39081  0.06300  1.0000
  C   C351      1.0  0.29854  0.65856  0.95143  1.0000
  C  Sn30      1.0  0.29965  0.60368  0.75495  1.0000
  C  Sn31      1.0  0.28003  0.56483  0.66817  1.0000
  C   C352      1.0  0.25972  0.58168  0.77971  1.0000
  C  Sn32      1.0  0.25860  0.63655  0.97622  1.0000
  O  Te29      1.0  0.30232  0.44589  0.25916  1.0000
  O  Te30      1.0  0.32016  0.58781  0.64637  1.0000
  O  Te31      1.0  0.28076  0.50972  0.47184  1.0000
  O  Te32      1.0  0.26292  0.36784  0.08478  1.0000
  Mg  Mg15      1.0  0.31261  0.50812  0.38451  1.0000
  Mg  Mg16      1.0  0.27044  0.44753  0.34664  1.0000
  C  Sn33      1.0  0.70808  0.76236  0.62631  1.0000
  C   C353      1.0  0.73008  0.73376  0.49149  1.0000
  C  Sn34      1.0  0.74171  0.67513  0.33358  1.0000
  C  Sn35      1.0  0.73112  0.64443  0.30983  1.0000
  C   C354      1.0  0.70914  0.67302  0.44458  1.0000
  C  Sn36      1.0  0.69750  0.73165  0.60257  1.0000
  O  Te33      1.0  0.69677  0.82098  0.78308  1.0000
  O  Te34      1.0  0.76369  0.64748  0.20073  1.0000
  O  Te35      1.0  0.74245  0.58576  0.15290  1.0000
  O  Te36      1.0  0.67553  0.75929  0.73534  1.0000
  Mg  Mg17      1.0  0.77213  0.56718  0.01086  1.0000
  Mg  Mg18      1.0  0.66706  0.83958  0.92520  1.0000
  C  Sn37      1.0  0.72537  0.28734  0.39674  1.0000
  C   C355      1.0  0.72553  0.33424  0.48079  1.0000
  C  Sn38      1.0  0.74603  0.37246  0.59311  1.0000
  C  Sn39      1.0  0.76683  0.36360  0.62194  1.0000
  C   C356      1.0  0.76667  0.31672  0.53791  1.0000
  C  Sn40      1.0  0.74616  0.27848  0.42558  1.0000
  O  Te37      1.0  0.70467  0.24967  0.28499  1.0000
  O  Te38      1.0  0.74576  0.41904  0.67570  1.0000
  O  Te39      1.0  0.78754  0.40132  0.73380  1.0000
  O  Te40      1.0  0.74644  0.23192  0.34299  1.0000
  Mg  Mg19      1.0  0.77836  0.45843  0.81602  1.0000
  Mg  Mg20      1.0  0.71385  0.19249  0.20257  1.0000
  C  Sn41      1.0  0.78428  0.19164  0.43943  1.0000
  C   C357      1.0  0.78999  0.23890  0.52894  1.0000
  C  Sn42      1.0  0.81808  0.24553  0.52249  1.0000
  C  Sn43      1.0  0.84095  0.20404  0.42443  1.0000
  C   C358      1.0  0.83524  0.15682  0.33496  1.0000
  C  Sn44      1.0  0.80715  0.15016  0.34136  1.0000
  O  Te41      1.0  0.75602  0.18588  0.44769  1.0000
  O  Te42      1.0  0.82326  0.29314  0.61312  1.0000
  O  Te43      1.0  0.86922  0.20985  0.41623  1.0000
  O  Te44      1.0  0.80197  0.10258  0.25078  1.0000
  Mg  Mg21      1.0  0.86540  0.28204  0.56175  1.0000
  Mg  Mg22      1.0  0.75984  0.11362  0.30197  1.0000
  C  Sn45      1.0  0.72315  0.79636  0.52611  1.0000
  C   C359      1.0  0.72950  0.74207  0.40512  1.0000
  C  Sn46      1.0  0.74979  0.69758  0.24037  1.0000
  C  Sn47      1.0  0.76403  0.70756  0.19567  1.0000
  C   C360      1.0  0.75767  0.76183  0.31663  1.0000
  C  Sn48      1.0  0.73739  0.80635  0.48140  1.0000
  O  Te45      1.0  0.70279  0.84021  0.69005  1.0000
  O  Te46      1.0  0.75578  0.64366  0.12158  1.0000
  O  Te47      1.0  0.78440  0.66365  0.03156  1.0000
  O  Te48      1.0  0.73140  0.86024  0.60017  1.0000
  Mg  Mg23      1.0  0.76037  0.88225  0.91463  1.0000
  Mg  Mg24      1.0  0.70200  0.90628  0.80720  1.0000
  C  Sn49      1.0  0.68166  0.45189  0.26606  1.0000
  C   C361      1.0  0.65582  0.44228  0.21099  1.0000
  C  Sn50      1.0  0.63293  0.43169  0.23252  1.0000
  C  Sn51      1.0  0.63592  0.43071  0.31084  1.0000
  C   C362      1.0  0.66174  0.44032  0.36590  1.0000
  C  Sn52      1.0  0.68465  0.45091  0.34439  1.0000
  O  Te49      1.0  0.70427  0.46240  0.24325  1.0000
  O  Te50      1.0  0.60731  0.42219  0.17636  1.0000
  O  Te51      1.0  0.61328  0.42019  0.33362  1.0000
  O  Te52      1.0  0.71025  0.46042  0.40053  1.0000
  Mg  Mg25      1.0  0.58267  0.40975  0.23599  1.0000
  Mg  Mg26      1.0  0.73490  0.47289  0.34106  1.0000
  C  Sn53      1.0  0.78998  0.80888  0.17551  1.0000
  C   C363      1.0  0.79571  0.76423  0.10010  1.0000
  C  Sn54      1.0  0.82385  0.74187  0.04740  1.0000
  C  Sn55      1.0  0.84674  0.76463  0.07065  1.0000
  C   C364      1.0  0.84101  0.80926  0.14605  1.0000
  C  Sn56      1.0  0.81287  0.83164  0.19877  1.0000
  O  Te53      1.0  0.76168  0.83057  0.22724  1.0000
  O  Te54      1.0  0.80423  0.98181  0.97226  1.0000
  O  Te55      1.0  0.87506  0.74289  0.01884  1.0000
  O  Te56      1.0  0.80767  0.87626  0.27389  1.0000
  Mg  Mg27      1.0  0.84643  0.96667  0.92296  1.0000
  Mg  Mg28      1.0  0.76548  0.89146  0.32333  1.0000
  C  Sn57      1.0  0.76921  0.52425  0.03174  1.0000
  C   C365      1.0  0.75709  0.77223  0.86315  1.0000
  C  Sn58      1.0  0.75924  0.71069  0.69033  1.0000
  C  Sn59      1.0  0.74845  0.68520  0.68588  1.0000
  C   C366      1.0  0.73576  0.72180  0.85439  1.0000
  C  Sn60      1.0  0.75842  0.49876  0.02730  1.0000
  O  Te57      1.0  0.76729  0.58567  0.20290  1.0000
  O  Te58      1.0  0.77203  0.67500  0.52366  1.0000
  O  Te59      1.0  0.75038  0.62374  0.51453  1.0000
  O  Te60      1.0  0.74564  0.53444  0.19388  1.0000
  Mg  Mg29      1.0  0.76962  0.59374  0.32556  1.0000
  Mg  Mg30      1.0  0.74802  0.61571  0.39204  1.0000
  C  Sn61      1.0  0.27869  0.36566  0.44871  1.0000
  C   C367      1.0  0.28372  0.30438  0.28091  1.0000
  C  Sn62      1.0  0.31053  0.27255  0.16584  1.0000
  C  Sn63      1.0  0.33277  0.30259  0.21965  1.0000
  C   C368      1.0  0.32773  0.36383  0.38737  1.0000
  C  Sn64      1.0  0.30093  0.39569  0.50252  1.0000
  O  Te61      1.0  0.25173  0.39658  0.56158  1.0000
  O  Te62      1.0  0.29022  0.49591  0.99871  1.0000
  O  Te63      1.0  0.35974  0.27161  0.10661  1.0000
  O  Te64      1.0  0.29641  0.45689  0.66957  1.0000
  Mg  Mg31      1.0  0.33062  0.47327  0.89232  1.0000
  Mg  Mg32      1.0  0.25603  0.47958  0.77611  1.0000
