data_image0
_chemical_formula_structural       H256C336N16O24SnCSn2CSnTe4Mg2SnCSn2CSnTe4Mg2SnCSn2CSnTe4Mg2SnCSn2CSnTe4Mg2SnCSn2CSnTe4Mg2SnCSn2CSnTe4Mg2SnCSn2CSnTe4Mg2SnCSn2CSnTe4Mg2SnCSn2CSnTe4Mg2SnCSn2CSnTe4Mg2SnCSn2CSnTe4Mg2SnCSn2CSnTe4Mg2SnCSn2CSnTe4Mg2SnCSn2CSnTe4Mg2SnCSn2CSnTe4Mg2SnCSn2CSnTe4Mg2
_chemical_formula_sum              "H256 C368 N16 O24 Sn64 Te64 Mg32"
_cell_length_a       50.5977
_cell_length_b       51.1447
_cell_length_c       18.2972
_cell_angle_alpha    145.526
_cell_angle_beta     87.0153
_cell_angle_gamma    91.1806

_symmetry_space_group_name_H-M    'P1'
_space_group_IT_number       1

loop_
  _space_group_symop_operation_xyz
  'x, y, z'

loop_
  _atom_site_type_symbol
  _atom_site_label
  _atom_site_symmetry_multiplicity
  _atom_site_fract_x
  _atom_site_fract_y
  _atom_site_fract_z
  _atom_site_occupancy
  H   H1        1.0  0.21391  0.07623  0.17170  1.0000
  H   H2        1.0  0.24161  0.10452  0.13275  1.0000
  H   H3        1.0  0.18559  0.21804  0.36568  1.0000
  H   H4        1.0  0.15779  0.18992  0.40563  1.0000
  H   H5        1.0  0.11791  0.05447  0.31138  1.0000
  H   H6        1.0  0.07526  0.18985  0.47164  1.0000
  H   H7        1.0  0.05129  0.16564  0.53027  1.0000
  H   H8        1.0  0.10455  0.16948  0.31483  1.0000
  H   H9        1.0  0.13857  0.03176  0.47255  1.0000
  H   H10       1.0  0.11563  0.00846  0.03612  1.0000
  H   H11       1.0  0.01692  0.02464  0.29970  1.0000
  H   H12       1.0  0.98866  0.06297  0.40175  1.0000
  H   H13       1.0  0.02536  0.11005  0.53061  1.0000
  H   H14       1.0  0.01832  0.12313  0.46823  1.0000
  H   H15       1.0  0.17161  0.18209  0.02876  1.0000
  H   H16       1.0  0.19725  0.14179  0.45470  1.0000
  H   H17       1.0  0.14630  0.12588  0.33876  1.0000
  H   H18       1.0  0.28856  0.87605  0.17785  1.0000
  H   H19       1.0  0.26745  0.90925  0.14640  1.0000
  H   H20       1.0  0.72315  0.42038  0.52123  1.0000
  H   H21       1.0  0.68422  0.30896  0.44153  1.0000
  H   H22       1.0  0.66003  0.33247  0.38714  1.0000
  H   H23       1.0  0.22474  0.22104  0.14189  1.0000
  H   H24       1.0  0.19820  0.19458  0.18956  1.0000
  H   H25       1.0  0.26945  0.16879  0.24443  1.0000
  H   H26       1.0  0.29603  0.19538  0.19711  1.0000
  H   H27       1.0  0.46332  0.44442  0.32925  1.0000
  H   H28       1.0  0.46336  0.40592  0.31649  1.0000
  H   H29       1.0  0.50819  0.40677  0.26650  1.0000
  H   H30       1.0  0.50659  0.43512  0.41856  1.0000
  H   H31       1.0  0.49367  0.49044  0.21490  1.0000
  H   H32       1.0  0.49378  0.51775  0.19069  1.0000
  H   H33       1.0  0.47757  0.59262  0.43597  1.0000
  H   H34       1.0  0.46624  0.55443  0.41756  1.0000
  H   H35       1.0  0.57499  0.40891  0.37587  1.0000
  H   H36       1.0  0.59452  0.37288  0.40266  1.0000
  H   H37       1.0  0.61682  0.38159  0.03320  1.0000
  H   H38       1.0  0.65291  0.50961  0.37509  1.0000
  H   H39       1.0  0.63252  0.54661  0.35559  1.0000
  H   H40       1.0  0.58463  0.68872  0.05119  1.0000
  H   H41       1.0  0.56583  0.65220  0.07813  1.0000
  H   H42       1.0  0.60970  0.68606  0.42720  1.0000
  H   H43       1.0  0.65073  0.55848  0.06975  1.0000
  H   H44       1.0  0.63212  0.51983  0.08999  1.0000
  H   H45       1.0  0.47049  0.51968  0.48406  1.0000
  H   H46       1.0  0.44012  0.58584  0.08772  1.0000
  H   H47       1.0  0.39858  0.63242  0.20297  1.0000
  H   H48       1.0  0.34555  0.62346  0.37264  1.0000
  H   H49       1.0  0.37492  0.56366  0.28722  1.0000
  H   H50       1.0  0.40637  0.45075  0.23159  1.0000
  H   H51       1.0  0.44085  0.50632  0.33487  1.0000
  H   H52       1.0  0.36926  0.40619  0.08774  1.0000
  H   H53       1.0  0.34901  0.41264  0.37155  1.0000
  H   H54       1.0  0.38359  0.46907  0.47694  1.0000
  H   H55       1.0  0.53404  0.50998  0.33226  1.0000
  H   H56       1.0  0.51053  0.55618  0.46020  1.0000
  H   H57       1.0  0.55241  0.57741  0.03557  1.0000
  H   H58       1.0  0.54201  0.61284  0.53820  1.0000
  H   H59       1.0  0.54453  0.50582  0.45022  1.0000
  H   H60       1.0  0.54825  0.44773  0.34559  1.0000
  H   H61       1.0  0.53693  0.47686  0.04520  1.0000
  H   H62       1.0  0.53552  0.53383  0.14139  1.0000
  H   H63       1.0  0.32458  0.40300  0.09595  1.0000
  H   H64       1.0  0.61479  0.37827  0.15177  1.0000
  H   H65       1.0  0.63555  0.34251  0.17614  1.0000
  H   H66       1.0  0.70287  0.42670  0.33264  1.0000
  H   H67       1.0  0.68287  0.46101  0.30350  1.0000
  H   H68       1.0  0.68026  0.61209  0.15420  1.0000
  H   H69       1.0  0.69878  0.64663  0.11989  1.0000
  H   H70       1.0  0.62514  0.72175  0.26535  1.0000
  H   H71       1.0  0.60632  0.68695  0.29931  1.0000
  H   H72       1.0  0.31076  0.77774  0.43749  1.0000
  H   H73       1.0  0.28749  0.73421  0.33974  1.0000
  H   H74       1.0  0.26473  0.76823  0.53008  1.0000
  H   H75       1.0  0.25901  0.29525  0.33564  1.0000
  H   H76       1.0  0.25500  0.28325  0.21488  1.0000
  H   H77       1.0  0.29943  0.23045  0.16533  1.0000
  H   H78       1.0  0.66466  0.73703  0.21910  1.0000
  H   H79       1.0  0.69577  0.71106  0.17855  1.0000
  H   H80       1.0  0.65094  0.66549  0.99612  1.0000
  H   H81       1.0  0.67793  0.32722  0.20852  1.0000
  H   H82       1.0  0.70513  0.36266  0.27142  1.0000
  H   H83       1.0  0.65348  0.38806  0.41902  1.0000
  H   H84       1.0  0.97464  0.10271  0.37241  1.0000
  H   H85       1.0  0.95866  0.05224  0.28799  1.0000
  H   H86       1.0  0.98509  0.06795  0.17131  1.0000
  H   H87       1.0  0.95025  0.06920  0.19691  1.0000
  H   H88       1.0  0.88523  0.11479  0.09824  1.0000
  H   H89       1.0  0.86786  0.11379  0.32873  1.0000
  H   H90       1.0  0.89585  0.04279  0.17640  1.0000
  H   H91       1.0  0.84310  0.26974  0.14607  1.0000
  H   H92       1.0  0.82292  0.32250  0.17042  1.0000
  H   H93       1.0  0.80960  0.29677  0.03470  1.0000
  H   H94       1.0  0.77795  0.26121  0.06852  1.0000
  H   H95       1.0  0.25169  0.91035  0.40552  1.0000
  H   H96       1.0  0.26744  0.87593  0.43985  1.0000
  H   H97       1.0  0.17095  0.89616  0.45379  1.0000
  H   H98       1.0  0.04653  0.91317  0.38390  1.0000
  H   H99       1.0  0.07154  0.88417  0.42059  1.0000
  H   H100      1.0  0.10438  0.89493  0.03685  1.0000
  H   H101      1.0  0.14587  0.02190  0.32935  1.0000
  H   H102      1.0  0.01664  0.96334  0.46349  1.0000
  H   H103      1.0  0.01537  0.00721  0.99434  1.0000
  H   H104      1.0  0.11251  0.90199  0.17909  1.0000
  H   H105      1.0  0.14115  0.87403  0.21233  1.0000
  H   H106      1.0  0.20632  0.94616  0.27896  1.0000
  H   H107      1.0  0.17798  0.97381  0.24527  1.0000
  H   H108      1.0  0.18316  0.86271  0.23390  1.0000
  H   H109      1.0  0.21192  0.87440  0.20629  1.0000
  H   H110      1.0  0.18141  0.94832  0.47180  1.0000
  H   H111      1.0  0.72716  0.81669  0.44963  1.0000
  H   H112      1.0  0.70574  0.79691  0.02735  1.0000
  H   H113      1.0  0.74686  0.66900  0.23632  1.0000
  H   H114      1.0  0.77119  0.68693  0.16093  1.0000
  H   H115      1.0  0.96230  0.93023  0.14500  1.0000
  H   H116      1.0  0.97181  0.88663  0.10721  1.0000
  H   H117      1.0  0.99226  0.98267  0.34555  1.0000
  H   H118      1.0  0.00748  0.94558  0.19070  1.0000
  H   H119      1.0  0.94224  0.98678  0.25856  1.0000
  H   H120      1.0  0.91376  0.05662  0.41067  1.0000
  H   H121      1.0  0.94548  0.90655  0.00122  1.0000
  H   H122      1.0  0.97800  0.95974  0.06165  1.0000
  H   H123      1.0  0.90013  0.87702  0.44602  1.0000
  H   H124      1.0  0.84362  0.91146  0.36443  1.0000
  H   H125      1.0  0.87617  0.95946  0.40874  1.0000
  H   H126      1.0  0.04443  0.95571  0.29166  1.0000
  H   H127      1.0  0.04655  0.91248  0.26043  1.0000
  H   H128      1.0  0.81828  0.91005  0.97135  1.0000
  H   H129      1.0  0.78495  0.87017  0.45924  1.0000
  H   H130      1.0  0.84526  0.76620  0.26202  1.0000
  H   H131      1.0  0.87755  0.80835  0.28072  1.0000
  H   H132      1.0  0.80473  0.76469  0.32696  1.0000
  H   H133      1.0  0.78586  0.81676  0.45814  1.0000
  H   H134      1.0  0.75883  0.79584  0.30420  1.0000
  H   H135      1.0  0.21297  0.07509  0.66798  1.0000
  H   H136      1.0  0.24043  0.10474  0.63262  1.0000
  H   H137      1.0  0.18373  0.21750  0.86641  1.0000
  H   H138      1.0  0.15620  0.18808  0.90289  1.0000
  H   H139      1.0  0.11646  0.05650  0.81964  1.0000
  H   H140      1.0  0.07324  0.18869  0.96404  1.0000
  H   H141      1.0  0.05092  0.16530  0.02716  1.0000
  H   H142      1.0  0.10237  0.16868  0.80777  1.0000
  H   H143      1.0  0.14069  0.03229  0.98022  1.0000
  H   H144      1.0  0.11436  0.00771  0.52910  1.0000
  H   H145      1.0  0.01959  0.02170  0.78998  1.0000
  H   H146      1.0  0.99060  0.05797  0.89081  1.0000
  H   H147      1.0  0.02530  0.10854  0.02675  1.0000
  H   H148      1.0  0.01881  0.12053  0.96116  1.0000
  H   H149      1.0  0.17237  0.18387  0.53248  1.0000
  H   H150      1.0  0.19684  0.14042  0.95052  1.0000
  H   H151      1.0  0.14537  0.12390  0.83594  1.0000
  H   H152      1.0  0.21521  0.79570  0.88329  1.0000
  H   H153      1.0  0.23623  0.76255  0.91530  1.0000
  H   H154      1.0  0.74828  0.39452  0.56699  1.0000
  H   H155      1.0  0.46188  0.44683  0.83417  1.0000
  H   H156      1.0  0.46116  0.40784  0.81943  1.0000
  H   H157      1.0  0.50637  0.40566  0.76343  1.0000
  H   H158      1.0  0.50547  0.43543  0.91745  1.0000
  H   H159      1.0  0.49229  0.49678  0.71156  1.0000
  H   H160      1.0  0.49152  0.53183  0.71261  1.0000
  H   H161      1.0  0.47326  0.59863  0.95130  1.0000
  H   H162      1.0  0.46498  0.55574  0.91835  1.0000
  H   H163      1.0  0.57081  0.41237  0.88672  1.0000
  H   H164      1.0  0.59085  0.37531  0.90920  1.0000
  H   H165      1.0  0.61917  0.38079  0.53289  1.0000
  H   H166      1.0  0.65333  0.51045  0.87904  1.0000
  H   H167      1.0  0.63192  0.54685  0.85906  1.0000
  H   H168      1.0  0.58549  0.69157  0.56042  1.0000
  H   H169      1.0  0.56789  0.65467  0.58783  1.0000
  H   H170      1.0  0.61010  0.68284  0.91928  1.0000
  H   H171      1.0  0.65250  0.55548  0.56692  1.0000
  H   H172      1.0  0.63397  0.51792  0.59034  1.0000
  H   H173      1.0  0.46899  0.52210  0.98947  1.0000
  H   H174      1.0  0.44189  0.58292  0.57812  1.0000
  H   H175      1.0  0.40063  0.62938  0.68992  1.0000
  H   H176      1.0  0.34699  0.62441  0.86847  1.0000
  H   H177      1.0  0.37569  0.56429  0.78458  1.0000
  H   H178      1.0  0.40373  0.45279  0.73450  1.0000
  H   H179      1.0  0.43654  0.51211  0.84983  1.0000
  H   H180      1.0  0.36888  0.40488  0.57936  1.0000
  H   H181      1.0  0.34756  0.41522  0.88469  1.0000
  H   H182      1.0  0.38241  0.47080  0.98587  1.0000
  H   H183      1.0  0.53083  0.51010  0.81957  1.0000
  H   H184      1.0  0.50887  0.55660  0.95760  1.0000
  H   H185      1.0  0.55332  0.58335  0.54926  1.0000
  H   H186      1.0  0.54255  0.61293  0.04335  1.0000
  H   H187      1.0  0.54412  0.50421  0.94554  1.0000
  H   H188      1.0  0.54770  0.44674  0.84548  1.0000
  H   H189      1.0  0.53911  0.47557  0.54219  1.0000
  H   H190      1.0  0.53890  0.53326  0.64295  1.0000
  H   H191      1.0  0.33697  0.34099  0.73982  1.0000
  H   H192      1.0  0.29895  0.29138  0.65160  1.0000
  H   H193      1.0  0.28726  0.35209  0.00579  1.0000
  H   H194      1.0  0.31399  0.78086  0.94204  1.0000
  H   H195      1.0  0.29081  0.73725  0.84056  1.0000
  H   H196      1.0  0.26758  0.76858  0.02634  1.0000
  H   H197      1.0  0.25672  0.30049  0.85042  1.0000
  H   H198      1.0  0.25341  0.28755  0.72742  1.0000
  H   H199      1.0  0.29761  0.23693  0.68712  1.0000
  H   H200      1.0  0.66701  0.74367  0.74806  1.0000
  H   H201      1.0  0.69667  0.71046  0.68146  1.0000
  H   H202      1.0  0.64746  0.68254  0.53849  1.0000
  H   H203      1.0  0.67847  0.32836  0.71405  1.0000
  H   H204      1.0  0.70618  0.36260  0.77406  1.0000
  H   H205      1.0  0.65483  0.39066  0.92791  1.0000
  H   H206      1.0  0.97612  0.10044  0.86870  1.0000
  H   H207      1.0  0.96006  0.05008  0.78468  1.0000
  H   H208      1.0  0.98546  0.06600  0.66743  1.0000
  H   H209      1.0  0.95080  0.06826  0.69742  1.0000
  H   H210      1.0  0.88426  0.11674  0.60636  1.0000
  H   H211      1.0  0.86653  0.11549  0.83590  1.0000
  H   H212      1.0  0.89424  0.04422  0.68325  1.0000
  H   H213      1.0  0.83930  0.14185  0.67213  1.0000
  H   H214      1.0  0.81404  0.21557  0.82348  1.0000
  H   H215      1.0  0.86881  0.19648  0.99527  1.0000
  H   H216      1.0  0.82255  0.31943  0.65879  1.0000
  H   H217      1.0  0.80989  0.29337  0.52164  1.0000
  H   H218      1.0  0.77775  0.25685  0.55047  1.0000
  H   H219      1.0  0.18672  0.86150  0.48800  1.0000
  H   H220      1.0  0.04503  0.91473  0.88834  1.0000
  H   H221      1.0  0.07007  0.88463  0.92180  1.0000
  H   H222      1.0  0.10578  0.89510  0.53590  1.0000
  H   H223      1.0  0.14431  0.02493  0.84059  1.0000
  H   H224      1.0  0.01586  0.96341  0.95990  1.0000
  H   H225      1.0  0.01557  0.00600  0.49361  1.0000
  H   H226      1.0  0.11413  0.90030  0.67358  1.0000
  H   H227      1.0  0.14316  0.87342  0.70896  1.0000
  H   H228      1.0  0.20631  0.95246  0.79601  1.0000
  H   H229      1.0  0.17760  0.97887  0.75957  1.0000
  H   H230      1.0  0.18484  0.86632  0.74299  1.0000
  H   H231      1.0  0.21332  0.87849  0.71588  1.0000
  H   H232      1.0  0.18239  0.95171  0.98024  1.0000
  H   H233      1.0  0.73046  0.81795  0.96115  1.0000
  H   H234      1.0  0.70283  0.79870  0.52485  1.0000
  H   H235      1.0  0.74691  0.66414  0.71817  1.0000
  H   H236      1.0  0.77172  0.68513  0.65216  1.0000
  H   H237      1.0  0.96425  0.92891  0.63954  1.0000
  H   H238      1.0  0.97439  0.88608  0.60421  1.0000
  H   H239      1.0  0.99193  0.98317  0.84965  1.0000
  H   H240      1.0  0.00789  0.95027  0.70038  1.0000
  H   H241      1.0  0.94257  0.98354  0.74768  1.0000
  H   H242      1.0  0.91445  0.05373  0.89995  1.0000
  H   H243      1.0  0.94471  0.90471  0.49696  1.0000
  H   H244      1.0  0.97778  0.95636  0.55295  1.0000
  H   H245      1.0  0.90124  0.87741  0.94600  1.0000
  H   H246      1.0  0.84517  0.90837  0.85360  1.0000
  H   H247      1.0  0.87764  0.95612  0.89662  1.0000
  H   H248      1.0  0.04579  0.95959  0.79941  1.0000
  H   H249      1.0  0.04845  0.91590  0.76618  1.0000
  H   H250      1.0  0.81714  0.91207  0.47721  1.0000
  H   H251      1.0  0.78665  0.86827  0.95546  1.0000
  H   H252      1.0  0.84747  0.76522  0.75959  1.0000
  H   H253      1.0  0.87925  0.80712  0.77586  1.0000
  H   H254      1.0  0.80696  0.76270  0.82237  1.0000
  H   H255      1.0  0.78889  0.81539  0.95780  1.0000
  H   H256      1.0  0.76061  0.79738  0.81198  1.0000
  C   C1        1.0  0.26448  0.81612  0.04531  1.0000
  C   C2        1.0  0.26227  0.21022  0.16681  1.0000
  C   C3        1.0  0.68992  0.37789  0.44974  1.0000
  C   C4        1.0  0.27266  0.85805  0.11212  1.0000
  C   C5        1.0  0.26087  0.87660  0.09362  1.0000
  C   C6        1.0  0.24064  0.85380  0.00752  1.0000
  C   C7        1.0  0.71472  0.39546  0.50208  1.0000
  C   C8        1.0  0.69328  0.33216  0.45509  1.0000
  C   C9        1.0  0.67948  0.34584  0.42575  1.0000
  C   C10       1.0  0.23460  0.20981  0.16484  1.0000
  C   C11       1.0  0.21965  0.19510  0.19212  1.0000
  C   C12       1.0  0.23188  0.17956  0.21967  1.0000
  C   C13       1.0  0.25965  0.17942  0.21967  1.0000
  C   C14       1.0  0.27456  0.19481  0.19415  1.0000
  C   C15       1.0  0.47039  0.43919  0.37240  1.0000
  C   C16       1.0  0.50036  0.43789  0.36837  1.0000
  C   C17       1.0  0.49483  0.52396  0.26394  1.0000
  C   C18       1.0  0.47156  0.55718  0.36519  1.0000
  C   C19       1.0  0.60842  0.43797  0.08953  1.0000
  C   C20       1.0  0.61212  0.48592  0.18405  1.0000
  C   C21       1.0  0.59889  0.50755  0.17502  1.0000
  C   C22       1.0  0.58446  0.48040  0.06746  1.0000
  C   C23       1.0  0.58512  0.42952  0.46212  1.0000
  C   C24       1.0  0.59328  0.41188  0.98215  1.0000
  C   C25       1.0  0.61994  0.41793  0.10542  1.0000
  C   C26       1.0  0.63549  0.44305  0.20797  1.0000
  C   C27       1.0  0.64020  0.48976  0.29631  1.0000
  C   C28       1.0  0.62874  0.51072  0.28595  1.0000
  C   C29       1.0  0.59766  0.55859  0.28323  1.0000
  C   C30       1.0  0.60948  0.58045  0.27091  1.0000
  C   C31       1.0  0.60407  0.62880  0.36974  1.0000
  C   C32       1.0  0.58888  0.65461  0.48346  1.0000
  C   C33       1.0  0.57885  0.63380  0.49822  1.0000
  C   C34       1.0  0.58268  0.58548  0.39689  1.0000
  C   C35       1.0  0.61434  0.64956  0.35245  1.0000
  C   C36       1.0  0.63073  0.62484  0.24509  1.0000
  C   C37       1.0  0.63730  0.57774  0.15227  1.0000
  C   C38       1.0  0.62681  0.55596  0.16315  1.0000
  C   C39       1.0  0.41070  0.58339  0.17189  1.0000
  C   C40       1.0  0.40391  0.56241  0.19289  1.0000
  C   C41       1.0  0.42070  0.52620  0.13683  1.0000
  C   C42       1.0  0.44313  0.51137  0.06038  1.0000
  C   C43       1.0  0.45039  0.53310  0.04333  1.0000
  C   C44       1.0  0.43452  0.56848  0.09869  1.0000
  C   C45       1.0  0.39351  0.61795  0.22321  1.0000
  C   C46       1.0  0.36995  0.63215  0.29301  1.0000
  C   C47       1.0  0.36363  0.61177  0.31524  1.0000
  C   C48       1.0  0.38009  0.57841  0.26798  1.0000
  C   C49       1.0  0.41566  0.50506  0.16150  1.0000
  C   C50       1.0  0.39590  0.47191  0.09878  1.0000
  C   C51       1.0  0.39207  0.45239  0.12569  1.0000
  C   C52       1.0  0.40895  0.46556  0.21124  1.0000
  C   C53       1.0  0.42838  0.49692  0.26951  1.0000
  C   C54       1.0  0.43149  0.51737  0.24656  1.0000
  C   C55       1.0  0.37183  0.42059  0.06616  1.0000
  C   C56       1.0  0.35608  0.40503  0.46957  1.0000
  C   C57       1.0  0.36113  0.42317  0.43981  1.0000
  C   C58       1.0  0.38040  0.45487  0.49886  1.0000
  C   C59       1.0  0.52724  0.54492  0.39626  1.0000
  C   C60       1.0  0.54893  0.57929  0.48202  1.0000
  C   C61       1.0  0.53826  0.48136  0.43662  1.0000
  C   C62       1.0  0.54424  0.49886  0.05096  1.0000
  C   C63       1.0  0.64730  0.42218  0.22482  1.0000
  C   C64       1.0  0.64172  0.64629  0.22702  1.0000
  C   C65       1.0  0.63442  0.38825  0.18874  1.0000
  C   C66       1.0  0.64611  0.36819  0.20295  1.0000
  C   C67       1.0  0.67103  0.38142  0.25411  1.0000
  C   C68       1.0  0.68368  0.41563  0.29147  1.0000
  C   C69       1.0  0.67215  0.43558  0.27710  1.0000
  C   C70       1.0  0.66788  0.63531  0.17609  1.0000
  C   C71       1.0  0.67847  0.65528  0.15857  1.0000
  C   C72       1.0  0.66331  0.68647  0.18961  1.0000
  C   C73       1.0  0.63730  0.69790  0.24166  1.0000
  C   C74       1.0  0.62668  0.67830  0.26072  1.0000
  C   C75       1.0  0.29883  0.75627  0.42537  1.0000
  C   C76       1.0  0.28061  0.79035  0.04224  1.0000
  C   C77       1.0  0.29303  0.82158  0.16364  1.0000
  C   C78       1.0  0.26950  0.28257  0.25595  1.0000
  C   C79       1.0  0.27864  0.23087  0.15114  1.0000
  C   C80       1.0  0.27815  0.20377  0.02132  1.0000
  C   C81       1.0  0.67467  0.70436  0.15909  1.0000
  C   C82       1.0  0.67212  0.66946  0.01393  1.0000
  C   C83       1.0  0.67567  0.63092  0.43797  1.0000
  C   C84       1.0  0.68343  0.36290  0.27922  1.0000
  C   C85       1.0  0.67476  0.39255  0.41726  1.0000
  C   C86       1.0  0.68050  0.44228  0.01841  1.0000
  C   C87       1.0  0.75143  0.75372  0.30265  1.0000
  C   C88       1.0  0.21021  0.90610  0.42851  1.0000
  C   C89       1.0  0.23736  0.89977  0.42373  1.0000
  C   C90       1.0  0.24625  0.88077  0.44464  1.0000
  C   C91       1.0  0.22824  0.86709  0.46936  1.0000
  C   C92       1.0  0.20102  0.87129  0.46741  1.0000
  C   C93       1.0  0.19214  0.89100  0.44851  1.0000
  C   C94       1.0  0.18393  0.13142  0.29231  1.0000
  C   C95       1.0  0.20767  0.10764  0.21576  1.0000
  C   C96       1.0  0.22339  0.12369  0.19381  1.0000
  C   C97       1.0  0.21572  0.16347  0.24663  1.0000
  C   C98       1.0  0.19184  0.18705  0.32335  1.0000
  C   C99       1.0  0.17625  0.17132  0.34618  1.0000
  C   C100      1.0  0.73154  0.78426  0.40274  1.0000
  C   C101      1.0  0.71781  0.77411  0.44515  1.0000
  C   C102      1.0  0.72368  0.73325  0.38944  1.0000
  C   C103      1.0  0.74281  0.70180  0.28487  1.0000
  C   C104      1.0  0.75645  0.71179  0.24192  1.0000
  C   C105      1.0  0.96939  0.92409  0.18574  1.0000
  C   C106      1.0  0.99585  0.94625  0.24515  1.0000
  C   C107      1.0  0.97470  0.06464  0.27924  1.0000
  C   C108      1.0  0.96959  0.05359  0.17469  1.0000
  C   C109      1.0  0.09166  0.94689  0.07944  1.0000
  C   C110      1.0  0.09497  0.99326  0.16033  1.0000
  C   C111      1.0  0.07924  0.01125  0.14558  1.0000
  C   C112      1.0  0.06235  0.98233  0.04443  1.0000
  C   C113      1.0  0.06009  0.93553  0.46114  1.0000
  C   C114      1.0  0.07411  0.91928  0.48181  1.0000
  C   C115      1.0  0.10729  0.92988  0.09740  1.0000
  C   C116      1.0  0.12656  0.95637  0.18737  1.0000
  C   C117      1.0  0.13042  0.00122  0.26132  1.0000
  C   C118      1.0  0.11479  0.01967  0.25123  1.0000
  C   C119      1.0  0.07987  0.06068  0.23769  1.0000
  C   C120      1.0  0.09516  0.07485  0.20744  1.0000
  C   C121      1.0  0.09287  0.12173  0.29028  1.0000
  C   C122      1.0  0.07665  0.15401  0.40690  1.0000
  C   C123      1.0  0.06301  0.14047  0.43896  1.0000
  C   C124      1.0  0.06427  0.09355  0.35325  1.0000
  C   C125      1.0  0.10680  0.13408  0.25284  1.0000
  C   C126      1.0  0.12342  0.10241  0.14094  1.0000
  C   C127      1.0  0.12700  0.05706  0.06535  1.0000
  C   C128      1.0  0.11297  0.04348  0.09620  1.0000
  C   C129      1.0  0.90330  0.05807  0.02573  1.0000
  C   C130      1.0  0.90655  0.03677  0.04666  1.0000
  C   C131      1.0  0.92195  0.99775  0.46527  1.0000
  C   C132      1.0  0.93516  0.97935  0.35960  1.0000
  C   C133      1.0  0.93228  0.00111  0.34097  1.0000
  C   C134      1.0  0.91614  0.04035  0.42618  1.0000
  C   C135      1.0  0.88702  0.09876  0.11474  1.0000
  C   C136      1.0  0.87409  0.11920  0.22319  1.0000
  C   C137      1.0  0.87791  0.09835  0.24455  1.0000
  C   C138      1.0  0.89348  0.05851  0.15924  1.0000
  C   C139      1.0  0.92656  0.97457  0.48284  1.0000
  C   C140      1.0  0.90722  0.94659  0.45460  1.0000
  C   C141      1.0  0.91395  0.92176  0.46220  1.0000
  C   C142      1.0  0.93971  0.92503  0.49602  1.0000
  C   C143      1.0  0.95846  0.95480  0.03006  1.0000
  C   C144      1.0  0.95170  0.97865  0.02067  1.0000
  C   C145      1.0  0.89486  0.89445  0.43598  1.0000
  C   C146      1.0  0.86957  0.89089  0.40294  1.0000
  C   C147      1.0  0.86318  0.91503  0.39362  1.0000
  C   C148      1.0  0.88140  0.94173  0.41779  1.0000
  C   C149      1.0  0.00653  0.05523  0.34824  1.0000
  C   C150      1.0  0.02502  0.09565  0.44187  1.0000
  C   C151      1.0  0.03387  0.94077  0.30528  1.0000
  C   C152      1.0  0.02785  0.97756  0.44924  1.0000
  C   C153      1.0  0.14310  0.93983  0.20885  1.0000
  C   C154      1.0  0.84982  0.86365  0.38183  1.0000
  C   C155      1.0  0.84215  0.24165  0.04210  1.0000
  C   C156      1.0  0.82325  0.87972  0.42825  1.0000
  C   C157      1.0  0.80515  0.85605  0.41825  1.0000
  C   C158      1.0  0.81282  0.81525  0.36023  1.0000
  C   C159      1.0  0.83904  0.79823  0.30941  1.0000
  C   C160      1.0  0.85727  0.82207  0.32043  1.0000
  C   C161      1.0  0.13316  0.91131  0.19952  1.0000
  C   C162      1.0  0.14931  0.89573  0.21882  1.0000
  C   C163      1.0  0.17591  0.90768  0.24709  1.0000
  C   C164      1.0  0.18571  0.93674  0.25856  1.0000
  C   C165      1.0  0.16958  0.95274  0.24067  1.0000
  C   C166      1.0  0.81191  0.29287  0.08467  1.0000
  C   C167      1.0  0.78306  0.29605  0.13027  1.0000
  C   C168      1.0  0.78314  0.32524  0.26257  1.0000
  C   C169      1.0  0.79402  0.79173  0.35925  1.0000
  C   C170      1.0  0.76950  0.76946  0.27530  1.0000
  C   C171      1.0  0.77780  0.73192  0.13830  1.0000
  C   C172      1.0  0.17582  0.14743  0.46331  1.0000
  C   C173      1.0  0.16743  0.11813  0.32962  1.0000
  C   C174      1.0  0.16965  0.06917  0.23516  1.0000
  C   C175      1.0  0.19320  0.88994  0.26556  1.0000
  C   C176      1.0  0.19970  0.92779  0.40946  1.0000
  C   C177      1.0  0.21791  0.96072  0.45220  1.0000
  C   C178      1.0  0.23130  0.81340  0.94780  1.0000
  C   C179      1.0  0.24315  0.79473  0.96597  1.0000
  C   C180      1.0  0.72865  0.38161  0.53065  1.0000
  C   C181      1.0  0.71809  0.35000  0.50872  1.0000
  C   C182      1.0  0.46906  0.44063  0.87480  1.0000
  C   C183      1.0  0.49905  0.43755  0.86580  1.0000
  C   C184      1.0  0.49269  0.53264  0.77419  1.0000
  C   C185      1.0  0.46891  0.56204  0.87424  1.0000
  C   C186      1.0  0.61000  0.43678  0.58825  1.0000
  C   C187      1.0  0.61276  0.48501  0.68416  1.0000
  C   C188      1.0  0.59968  0.50573  0.67211  1.0000
  C   C189      1.0  0.58663  0.47766  0.56057  1.0000
  C   C190      1.0  0.58196  0.43243  0.97011  1.0000
  C   C191      1.0  0.59609  0.40970  0.47693  1.0000
  C   C192      1.0  0.62166  0.41733  0.60577  1.0000
  C   C193      1.0  0.63682  0.44318  0.71008  1.0000
  C   C194      1.0  0.64076  0.49018  0.79944  1.0000
  C   C195      1.0  0.62878  0.51072  0.78860  1.0000
  C   C196      1.0  0.59780  0.55656  0.77941  1.0000
  C   C197      1.0  0.61010  0.57811  0.76687  1.0000
  C   C198      1.0  0.60431  0.62612  0.86351  1.0000
  C   C199      1.0  0.58827  0.65192  0.97546  1.0000
  C   C200      1.0  0.57763  0.63132  0.99021  1.0000
  C   C201      1.0  0.58185  0.58321  0.89077  1.0000
  C   C202      1.0  0.61489  0.64646  0.84542  1.0000
  C   C203      1.0  0.63163  0.62159  0.73863  1.0000
  C   C204      1.0  0.63868  0.57494  0.64857  1.0000
  C   C205      1.0  0.62817  0.55364  0.66098  1.0000
  C   C206      1.0  0.41212  0.58153  0.66365  1.0000
  C   C207      1.0  0.40490  0.56150  0.68713  1.0000
  C   C208      1.0  0.42121  0.52514  0.63184  1.0000
  C   C209      1.0  0.44381  0.50958  0.55506  1.0000
  C   C210      1.0  0.45168  0.53080  0.53692  1.0000
  C   C211      1.0  0.43606  0.56602  0.59037  1.0000
  C   C212      1.0  0.39523  0.61594  0.71302  1.0000
  C   C213      1.0  0.37171  0.63108  0.78424  1.0000
  C   C214      1.0  0.36503  0.61178  0.80958  1.0000
  C   C215      1.0  0.38111  0.57836  0.76341  1.0000
  C   C216      1.0  0.41530  0.50483  0.65846  1.0000
  C   C217      1.0  0.39597  0.47086  0.59240  1.0000
  C   C218      1.0  0.39157  0.45184  0.62050  1.0000
  C   C219      1.0  0.40705  0.46704  0.71268  1.0000
  C   C220      1.0  0.42558  0.50024  0.77704  1.0000
  C   C221      1.0  0.42947  0.51962  0.75104  1.0000
  C   C222      1.0  0.37170  0.41923  0.55769  1.0000
  C   C223      1.0  0.35558  0.40714  0.98077  1.0000
  C   C224      1.0  0.36020  0.42539  0.95118  1.0000
  C   C225      1.0  0.37955  0.45673  0.00826  1.0000
  C   C226      1.0  0.52507  0.54665  0.89431  1.0000
  C   C227      1.0  0.54803  0.57747  0.97747  1.0000
  C   C228      1.0  0.53732  0.48042  0.93387  1.0000
  C   C229      1.0  0.54655  0.49786  0.54916  1.0000
  C   C230      1.0  0.33362  0.37591  0.92481  1.0000
  C   C231      1.0  0.32584  0.34404  0.79928  1.0000
  C   C232      1.0  0.30448  0.31583  0.74917  1.0000
  C   C233      1.0  0.29020  0.31831  0.82274  1.0000
  C   C234      1.0  0.29813  0.34961  0.94720  1.0000
  C   C235      1.0  0.31933  0.37803  0.99771  1.0000
  C   C236      1.0  0.30189  0.75855  0.92621  1.0000
  C   C237      1.0  0.27788  0.78916  0.54305  1.0000
  C   C238      1.0  0.29086  0.82076  0.66346  1.0000
  C   C239      1.0  0.26756  0.28749  0.77076  1.0000
  C   C240      1.0  0.27711  0.23624  0.66819  1.0000
  C   C241      1.0  0.27811  0.20931  0.53828  1.0000
  C   C242      1.0  0.67511  0.70837  0.67443  1.0000
  C   C243      1.0  0.66895  0.67983  0.53921  1.0000
  C   C244      1.0  0.68318  0.62403  0.92896  1.0000
  C   C245      1.0  0.68447  0.36376  0.78398  1.0000
  C   C246      1.0  0.67624  0.39368  0.92265  1.0000
  C   C247      1.0  0.67753  0.44153  0.51365  1.0000
  C   C248      1.0  0.75324  0.75342  0.80385  1.0000
  C   C249      1.0  0.18273  0.12994  0.78927  1.0000
  C   C250      1.0  0.20654  0.10665  0.71303  1.0000
  C   C251      1.0  0.22209  0.12341  0.69287  1.0000
  C   C252      1.0  0.21417  0.16341  0.74708  1.0000
  C   C253      1.0  0.19017  0.18634  0.82293  1.0000
  C   C254      1.0  0.17475  0.16993  0.84403  1.0000
  C   C255      1.0  0.73408  0.78410  0.90747  1.0000
  C   C256      1.0  0.72009  0.77223  0.94472  1.0000
  C   C257      1.0  0.72497  0.72937  0.87984  1.0000
  C   C258      1.0  0.74351  0.69814  0.77271  1.0000
  C   C259      1.0  0.75743  0.70989  0.73515  1.0000
  C   C260      1.0  0.97102  0.92334  0.68203  1.0000
  C   C261      1.0  0.99671  0.94782  0.74798  1.0000
  C   C262      1.0  0.97591  0.06243  0.77519  1.0000
  C   C263      1.0  0.97009  0.05198  0.67232  1.0000
  C   C264      1.0  0.09242  0.94720  0.57999  1.0000
  C   C265      1.0  0.09510  0.99380  0.66174  1.0000
  C   C266      1.0  0.07963  0.01102  0.64400  1.0000
  C   C267      1.0  0.06335  0.98122  0.54030  1.0000
  C   C268      1.0  0.05881  0.93659  0.96454  1.0000
  C   C269      1.0  0.07291  0.91973  0.98333  1.0000
  C   C270      1.0  0.10813  0.93048  0.59862  1.0000
  C   C271      1.0  0.12680  0.95775  0.69154  1.0000
  C   C272      1.0  0.12964  0.00327  0.76870  1.0000
  C   C273      1.0  0.11404  0.02120  0.75688  1.0000
  C   C274      1.0  0.07979  0.06034  0.73516  1.0000
  C   C275      1.0  0.09416  0.07421  0.70233  1.0000
  C   C276      1.0  0.09133  0.12087  0.78397  1.0000
  C   C277      1.0  0.07521  0.15311  0.90086  1.0000
  C   C278      1.0  0.06251  0.13997  0.93544  1.0000
  C   C279      1.0  0.06457  0.09334  0.85178  1.0000
  C   C280      1.0  0.10482  0.13336  0.74620  1.0000
  C   C281      1.0  0.12150  0.10189  0.63465  1.0000
  C   C282      1.0  0.12517  0.05650  0.55861  1.0000
  C   C283      1.0  0.11160  0.04280  0.58985  1.0000
  C   C284      1.0  0.90232  0.06010  0.53416  1.0000
  C   C285      1.0  0.90548  0.03856  0.55442  1.0000
  C   C286      1.0  0.92295  0.99592  0.95775  1.0000
  C   C287      1.0  0.93595  0.97710  0.85121  1.0000
  C   C288      1.0  0.93287  0.99843  0.83135  1.0000
  C   C289      1.0  0.91689  0.03783  0.91659  1.0000
  C   C290      1.0  0.88600  0.10071  0.62286  1.0000
  C   C291      1.0  0.87305  0.12116  0.73120  1.0000
  C   C292      1.0  0.87670  0.10007  0.75192  1.0000
  C   C293      1.0  0.89220  0.06012  0.66650  1.0000
  C   C294      1.0  0.92753  0.97348  0.97757  1.0000
  C   C295      1.0  0.90838  0.94514  0.94837  1.0000
  C   C296      1.0  0.91504  0.92141  0.95954  1.0000
  C   C297      1.0  0.94051  0.92623  0.99817  1.0000
  C   C298      1.0  0.95794  0.95296  0.52602  1.0000
  C   C299      1.0  0.95117  0.97797  0.52036  1.0000
  C   C300      1.0  0.89603  0.89397  0.93316  1.0000
  C   C301      1.0  0.87089  0.88942  0.89730  1.0000
  C   C302      1.0  0.86459  0.91260  0.88481  1.0000
  C   C303      1.0  0.88277  0.93919  0.90831  1.0000
  C   C304      1.0  0.00830  0.05198  0.83992  1.0000
  C   C305      1.0  0.02581  0.09378  0.93729  1.0000
  C   C306      1.0  0.03525  0.94343  0.80917  1.0000
  C   C307      1.0  0.02768  0.97905  0.95129  1.0000
  C   C308      1.0  0.14366  0.94148  0.71309  1.0000
  C   C309      1.0  0.85635  0.16385  0.82216  1.0000
  C   C310      1.0  0.85128  0.86217  0.87682  1.0000
  C   C311      1.0  0.84044  0.16999  0.77593  1.0000
  C   C312      1.0  0.82606  0.21134  0.86111  1.0000
  C   C313      1.0  0.82700  0.24813  0.99551  1.0000
  C   C314      1.0  0.85653  0.20019  0.95693  1.0000
  C   C315      1.0  0.82469  0.87799  0.92336  1.0000
  C   C316      1.0  0.80688  0.85441  0.91464  1.0000
  C   C317      1.0  0.81486  0.81396  0.85788  1.0000
  C   C318      1.0  0.84105  0.79707  0.80644  1.0000
  C   C319      1.0  0.85900  0.82081  0.81616  1.0000
  C   C320      1.0  0.13445  0.91133  0.69872  1.0000
  C   C321      1.0  0.15083  0.89640  0.71944  1.0000
  C   C322      1.0  0.17698  0.91067  0.75440  1.0000
  C   C323      1.0  0.18607  0.94116  0.77023  1.0000
  C   C324      1.0  0.16971  0.95644  0.75075  1.0000
  C   C325      1.0  0.81191  0.28951  0.57185  1.0000
  C   C326      1.0  0.78287  0.29200  0.61459  1.0000
  C   C327      1.0  0.78231  0.32011  0.74580  1.0000
  C   C328      1.0  0.79632  0.79056  0.85814  1.0000
  C   C329      1.0  0.77120  0.76996  0.77873  1.0000
  C   C330      1.0  0.77873  0.73332  0.64142  1.0000
  C   C331      1.0  0.17532  0.14574  0.95984  1.0000
  C   C332      1.0  0.16657  0.11632  0.82639  1.0000
  C   C333      1.0  0.16903  0.06723  0.73069  1.0000
  C   C334      1.0  0.19457  0.89373  0.77470  1.0000
  C   C335      1.0  0.20088  0.93189  0.91895  1.0000
  C   C336      1.0  0.21851  0.96572  0.96387  1.0000
  N   N1        1.0  0.30317  0.84686  0.26038  1.0000
  N   N2        1.0  0.27876  0.18945  0.43683  1.0000
  N   N3        1.0  0.68517  0.48017  0.08941  1.0000
  N   N4        1.0  0.68204  0.59253  0.36084  1.0000
  N   N5        1.0  0.78458  0.34904  0.36846  1.0000
  N   N6        1.0  0.78481  0.70166  0.02915  1.0000
  N   N7        1.0  0.23268  0.99246  0.99855  1.0000
  N   N8        1.0  0.17126  0.03076  0.16561  1.0000
  N   N9        1.0  0.30171  0.84626  0.75871  1.0000
  N   N10       1.0  0.27755  0.18335  0.91935  1.0000
  N   N11       1.0  0.68006  0.48002  0.58541  1.0000
  N   N12       1.0  0.69341  0.58923  0.86624  1.0000
  N   N13       1.0  0.78303  0.34303  0.85093  1.0000
  N   N14       1.0  0.78504  0.70365  0.53180  1.0000
  N   N15       1.0  0.23249  0.98644  0.48357  1.0000
  N   N16       1.0  0.17081  0.02853  0.65891  1.0000
  O   O1        1.0  0.45891  0.47626  0.00734  1.0000
  O   O2        1.0  0.51969  0.54452  0.32087  1.0000
  O   O3        1.0  0.57291  0.56274  0.40547  1.0000
  O   O4        1.0  0.44897  0.55160  0.30913  1.0000
  O   O5        1.0  0.51006  0.47870  0.42792  1.0000
  O   O6        1.0  0.57271  0.50098  0.05586  1.0000
  O   O7        1.0  0.94966  0.93890  0.27562  1.0000
  O   O8        1.0  0.99947  0.04345  0.24862  1.0000
  O   O9        1.0  0.05159  0.07876  0.38287  1.0000
  O   O10       1.0  0.97084  0.00479  0.04581  1.0000
  O   O11       1.0  0.00977  0.92033  0.23898  1.0000
  O   O12       1.0  0.05017  0.00110  0.02880  1.0000
  O   O13       1.0  0.45899  0.47420  0.50268  1.0000
  O   O14       1.0  0.51717  0.55320  0.83588  1.0000
  O   O15       1.0  0.57163  0.56026  0.89817  1.0000
  O   O16       1.0  0.44577  0.55577  0.81921  1.0000
  O   O17       1.0  0.50926  0.47731  0.92092  1.0000
  O   O18       1.0  0.57517  0.49700  0.54457  1.0000
  O   O19       1.0  0.95047  0.93664  0.76705  1.0000
  O   O20       1.0  0.00073  0.04076  0.74191  1.0000
  O   O21       1.0  0.05291  0.07938  0.88530  1.0000
  O   O22       1.0  0.97060  0.00331  0.54293  1.0000
  O   O23       1.0  0.01196  0.92124  0.73665  1.0000
  O   O24       1.0  0.05137  0.99867  0.52032  1.0000
  C  Sn1       1.0  0.68071  0.74603  0.52592  1.0000
  C   C337      1.0  0.70710  0.73643  0.48050  1.0000
  C  Sn2       1.0  0.72234  0.70310  0.43957  1.0000
  C  Sn3       1.0  0.71098  0.67883  0.44405  1.0000
  C   C338      1.0  0.68460  0.68843  0.48943  1.0000
  C  Sn4       1.0  0.66934  0.72176  0.53040  1.0000
  O  Te1       1.0  0.66584  0.77949  0.56634  1.0000
  O  Te2       1.0  0.74868  0.69412  0.39459  1.0000
  O  Te3       1.0  0.72587  0.64535  0.40358  1.0000
  O  Te4       1.0  0.64302  0.73074  0.57534  1.0000
  Mg  Mg1       1.0  0.76088  0.64540  0.35011  1.0000
  Mg  Mg2       1.0  0.63080  0.77944  0.61978  1.0000
  C  Sn5       1.0  0.25993  0.61200  0.00095  1.0000
  C   C339      1.0  0.24533  0.59173  0.01179  1.0000
  C  Sn6       1.0  0.20656  0.87417  0.97480  1.0000
  C  Sn7       1.0  0.19484  0.88236  0.92587  1.0000
  C   C340      1.0  0.20944  0.90261  0.91502  1.0000
  C  Sn8       1.0  0.23552  0.91485  0.95201  1.0000
  O  Te5       1.0  0.28597  0.62394  0.03850  1.0000
  O  Te6       1.0  0.19234  0.85397  0.98658  1.0000
  O  Te7       1.0  0.16878  0.87040  0.88831  1.0000
  O  Te8       1.0  0.24973  0.93504  0.94023  1.0000
  Mg  Mg3       1.0  0.15750  0.84375  0.92261  1.0000
  Mg  Mg4       1.0  0.29727  0.65057  0.00410  1.0000
  C  Sn9       1.0  0.62519  0.67348  0.72727  1.0000
  C   C341      1.0  0.63746  0.64022  0.69424  1.0000
  C  Sn10      1.0  0.66491  0.63252  0.67061  1.0000
  C  Sn11      1.0  0.68044  0.65862  0.68028  1.0000
  C   C342      1.0  0.66817  0.69185  0.71331  1.0000
  C  Sn12      1.0  0.64071  0.69958  0.73694  1.0000
  O  Te9       1.0  0.59771  0.68060  0.75048  1.0000
  O  Te10      1.0  0.67673  0.59907  0.63769  1.0000
  O  Te11      1.0  0.70793  0.65146  0.65703  1.0000
  O  Te12      1.0  0.62890  0.73301  0.76986  1.0000
  Mg  Mg5       1.0  0.71485  0.60205  0.61527  1.0000
  Mg  Mg6       1.0  0.59078  0.73007  0.79237  1.0000
  C  Sn13      1.0  0.64686  0.36159  0.66544  1.0000
  C   C343      1.0  0.67115  0.37109  0.71592  1.0000
  C  Sn14      1.0  0.68431  0.41082  0.78616  1.0000
  C  Sn15      1.0  0.67295  0.44170  0.80645  1.0000
  C   C344      1.0  0.64867  0.43219  0.75601  1.0000
  C  Sn16      1.0  0.63550  0.39247  0.68573  1.0000
  O  Te13      1.0  0.63405  0.32167  0.59553  1.0000
  O  Te14      1.0  0.70858  0.41958  0.83563  1.0000
  O  Te15      1.0  0.68578  0.48164  0.87642  1.0000
  O  Te16      1.0  0.61124  0.38371  0.63630  1.0000
  Mg  Mg7       1.0  0.71841  0.47852  0.92447  1.0000
  Mg  Mg8       1.0  0.60139  0.32480  0.54750  1.0000
  C  Sn17      1.0  0.69386  0.32245  0.91223  1.0000
  C   C345      1.0  0.71790  0.33811  0.97093  1.0000
  C  Sn18      1.0  0.74124  0.08328  0.03218  1.0000
  C  Sn19      1.0  0.72756  0.10802  0.03488  1.0000
  C   C346      1.0  0.69084  0.38704  0.97623  1.0000
  C  Sn20      1.0  0.68018  0.34719  0.91494  1.0000
  O  Te17      1.0  0.68358  0.28254  0.85156  1.0000
  O  Te18      1.0  0.76531  0.09825  0.09015  1.0000
  O  Te19      1.0  0.73786  0.14797  0.09562  1.0000
  O  Te20      1.0  0.65612  0.33223  0.85701  1.0000
  Mg  Mg9       1.0  0.77125  0.15457  0.16090  1.0000
  Mg  Mg10      1.0  0.65015  0.27594  0.78629  1.0000
  C  Sn21      1.0  0.12184  0.13449  0.06879  1.0000
  C   C347      1.0  0.13221  0.10879  0.06684  1.0000
  C  Sn22      1.0  0.15944  0.09905  0.04572  1.0000
  C  Sn23      1.0  0.17668  0.11536  0.02622  1.0000
  C   C348      1.0  0.16631  0.14105  0.02819  1.0000
  C  Sn24      1.0  0.13908  0.15080  0.04929  1.0000
  O  Te21      1.0  0.09456  0.14382  0.09008  1.0000
  O  Te22      1.0  0.16934  0.07328  0.04415  1.0000
  O  Te23      1.0  0.20398  0.10601  0.00491  1.0000
  O  Te24      1.0  0.12918  0.17656  0.05088  1.0000
  Mg  Mg11      1.0  0.20797  0.06956  0.01149  1.0000
  Mg  Mg12      1.0  0.09055  0.18032  0.08360  1.0000
  C  Sn25      1.0  0.30851  0.69231  0.39658  1.0000
  C   C349      1.0  0.31486  0.72876  0.43359  1.0000
  C  Sn26      1.0  0.34078  0.73285  0.41425  1.0000
  C  Sn27      1.0  0.36076  0.69981  0.35663  1.0000
  C   C350      1.0  0.35441  0.66338  0.31962  1.0000
  C  Sn28      1.0  0.32849  0.65927  0.33895  1.0000
  O  Te25      1.0  0.28247  0.68890  0.41683  1.0000
  O  Te26      1.0  0.34665  0.76959  0.45210  1.0000
  O  Te27      1.0  0.38682  0.70325  0.33640  1.0000
  O  Te28      1.0  0.32262  0.62255  0.30112  1.0000
  Mg  Mg13      1.0  0.38502  0.75940  0.40425  1.0000
  Mg  Mg14      1.0  0.28425  0.63269  0.34885  1.0000
  C  Sn29      1.0  0.32079  0.36110  0.46873  1.0000
  C   C351      1.0  0.33608  0.36456  0.41122  1.0000
  C  Sn30      1.0  0.32804  0.34421  0.30034  1.0000
  C  Sn31      1.0  0.30422  0.31991  0.24584  1.0000
  C   C352      1.0  0.28894  0.31647  0.30336  1.0000
  C  Sn32      1.0  0.29697  0.33681  0.41423  1.0000
  O  Te29      1.0  0.32920  0.38172  0.57955  1.0000
  O  Te30      1.0  0.34366  0.34811  0.24455  1.0000
  O  Te31      1.0  0.29581  0.29929  0.13494  1.0000
  O  Te32      1.0  0.28136  0.33292  0.47003  1.0000
  Mg  Mg15      1.0  0.32385  0.31413  0.09432  1.0000
  Mg  Mg16      1.0  0.30114  0.36690  0.62029  1.0000
  C  Sn33      1.0  0.18923  0.11002  0.56271  1.0000
  C   C353      1.0  0.16331  0.12236  0.61583  1.0000
  C  Sn34      1.0  0.14486  0.13855  0.60405  1.0000
  C  Sn35      1.0  0.15247  0.14248  0.53772  1.0000
  C   C354      1.0  0.17838  0.13014  0.48463  1.0000
  C  Sn36      1.0  0.19684  0.11395  0.49638  1.0000
  O  Te33      1.0  0.20734  0.09391  0.57565  1.0000
  O  Te34      1.0  0.11906  0.15069  0.65800  1.0000
  O  Te35      1.0  0.11351  0.15861  0.52482  1.0000
  O  Te36      1.0  0.22262  0.10181  0.44246  1.0000
  Mg  Mg17      1.0  0.10155  0.17081  0.61483  1.0000
  Mg  Mg18      1.0  0.24015  0.08166  0.48551  1.0000
  C  Sn37      1.0  0.31074  0.69142  0.88601  1.0000
  C   C355      1.0  0.31744  0.72905  0.92864  1.0000
  C  Sn38      1.0  0.34356  0.73381  0.91286  1.0000
  C  Sn39      1.0  0.36338  0.70024  0.85315  1.0000
  C   C356      1.0  0.35668  0.66263  0.81054  1.0000
  C  Sn40      1.0  0.33057  0.65785  0.82630  1.0000
  O  Te37      1.0  0.28451  0.68735  0.90277  1.0000
  O  Te38      1.0  0.34978  0.77173  0.95630  1.0000
  O  Te39      1.0  0.38963  0.70434  0.83641  1.0000
  O  Te40      1.0  0.32434  0.61995  0.78288  1.0000
  Mg  Mg19      1.0  0.38830  0.76207  0.91157  1.0000
  Mg  Mg20      1.0  0.28582  0.62957  0.82750  1.0000
  C  Sn41      1.0  0.84743  0.20190  0.47140  1.0000
  C   C357      1.0  0.85057  0.16339  0.33652  1.0000
  C  Sn42      1.0  0.84339  0.16641  0.27088  1.0000
  C  Sn43      1.0  0.83287  0.20881  0.34153  1.0000
  C   C358      1.0  0.82974  0.24730  0.47633  1.0000
  C  Sn44      1.0  0.83691  0.24431  0.54205  1.0000
  O  Te41      1.0  0.85474  0.19810  0.53501  1.0000
  O  Te42      1.0  0.84671  0.12743  0.13599  1.0000
  O  Te43      1.0  0.82556  0.21259  0.27780  1.0000
  O  Te44      1.0  0.83360  0.28326  0.67686  1.0000
  Mg  Mg21      1.0  0.83386  0.14988  0.09321  1.0000
  Mg  Mg22      1.0  0.84646  0.26086  0.71974  1.0000
  C  Sn45      1.0  0.74899  0.27406  0.45974  1.0000
  C   C359      1.0  0.76531  0.30104  0.56233  1.0000
  C  Sn46      1.0  0.76363  0.34921  0.66835  1.0000
  C  Sn47      1.0  0.74526  0.37087  0.67196  1.0000
  C   C360      1.0  0.72895  0.34390  0.56943  1.0000
  C  Sn48      1.0  0.73062  0.29572  0.46335  1.0000
  O  Te45      1.0  0.75100  0.22597  0.35472  1.0000
  O  Te46      1.0  0.78016  0.37544  0.76975  1.0000
  O  Te47      1.0  0.74326  0.41900  0.77709  1.0000
  O  Te48      1.0  0.71410  0.26949  0.36201  1.0000
  Mg  Mg23      1.0  0.77001  0.43981  0.89169  1.0000
  Mg  Mg24      1.0  0.72422  0.20512  0.24006  1.0000
  C  Sn49      1.0  0.72220  0.67362  0.87680  1.0000
  C   C361      1.0  0.71194  0.70230  0.88896  1.0000
  C  Sn50      1.0  0.68812  0.72761  0.96096  1.0000
  C  Sn51      1.0  0.68696  0.42952  0.02217  1.0000
  C   C362      1.0  0.69723  0.40086  0.01002  1.0000
  C  Sn52      1.0  0.70835  0.67020  0.93801  1.0000
  O  Te49      1.0  0.74605  0.64864  0.80435  1.0000
  O  Te50      1.0  0.67825  0.75604  0.97169  1.0000
  O  Te51      1.0  0.66309  0.45453  0.09466  1.0000
  O  Te52      1.0  0.71823  0.64179  0.92729  1.0000
  Mg  Mg25      1.0  0.65770  0.48857  0.08089  1.0000
  Mg  Mg26      1.0  0.75147  0.61460  0.81818  1.0000
  C  Sn53      1.0  0.24086  0.18919  0.65678  1.0000
  C   C363      1.0  0.24981  0.17257  0.68488  1.0000
  C  Sn54      1.0  0.27551  0.18068  0.72340  1.0000
  C  Sn55      1.0  0.29262  0.20595  0.73412  1.0000
  C   C364      1.0  0.26284  0.22256  0.70604  1.0000
  C  Sn56      1.0  0.23714  0.21446  0.66750  1.0000
  O  Te53      1.0  0.21508  0.18068  0.61845  1.0000
  O  Te54      1.0  0.28402  0.16370  0.75094  1.0000
  O  Te55      1.0  0.31841  0.21445  0.77247  1.0000
  O  Te56      1.0  0.22863  0.23142  0.63999  1.0000
  Mg  Mg27      1.0  0.32085  0.18425  0.79950  1.0000
  Mg  Mg28      1.0  0.19180  0.21092  0.59149  1.0000
  C  Sn57      1.0  0.26455  0.86898  0.63639  1.0000
  C   C365      1.0  0.25825  0.82919  0.58409  1.0000
  C  Sn58      1.0  0.24260  0.79610  0.47783  1.0000
  C  Sn59      1.0  0.23305  0.80291  0.42264  1.0000
  C   C366      1.0  0.23936  0.84268  0.47491  1.0000
  C  Sn60      1.0  0.25500  0.87579  0.58119  1.0000
  O  Te57      1.0  0.28023  0.90161  0.74262  1.0000
  O  Te58      1.0  0.23656  0.75661  0.42727  1.0000
  O  Te59      1.0  0.21736  0.77025  0.31632  1.0000
  O  Te60      1.0  0.26105  0.91526  0.63173  1.0000
  Mg  Mg29      1.0  0.21453  0.72211  0.28191  1.0000
  Mg  Mg30      1.0  0.28309  0.94977  0.77704  1.0000
  C  Sn61      1.0  0.75429  0.36741  0.21476  1.0000
  C   C367      1.0  0.75683  0.32410  0.14814  1.0000
  C  Sn62      1.0  0.74891  0.28457  0.02172  1.0000
  C  Sn63      1.0  0.72554  0.58308  0.96058  1.0000
  C   C368      1.0  0.73569  0.33171  0.02718  1.0000
  C  Sn64      1.0  0.74361  0.37125  0.15362  1.0000
  O  Te61      1.0  0.76234  0.40646  0.34108  1.0000
  O  Te62      1.0  0.73895  0.53632  0.95709  1.0000
  O  Te63      1.0  0.71749  0.54398  0.83416  1.0000
  O  Te64      1.0  0.74089  0.41415  0.21823  1.0000
  Mg  Mg31      1.0  0.72518  0.49319  0.78620  1.0000
  Mg  Mg32      1.0  0.75466  0.45730  0.38909  1.0000
