data_image0
_chemical_formula_structural       H160C240N16O24SnCSn2CSnTe4Mg2SnCSn2CSnTe4Mg2SnCSn2CSnTe4Mg2SnCSn2CSnTe4Mg2SnCSn2CSnTe4Mg2SnCSn2CSnTe4Mg2SnCSn2CSnTe4Mg2SnCSn2CSnTe4Mg2SnCSn2CSnTe4Mg2SnCSn2CSnTe4Mg2SnCSn2CSnTe4Mg2SnCSn2CSnTe4Mg2SnCSn2CSnTe4Mg2SnCSn2CSnTe4Mg2SnCSn2CSnTe4Mg2SnCSn2CSnTe4Mg2SnCSn2CSnTe4Mg2SnCSn2CSnTe4Mg2SnCSn2CSnTe4Mg2SnCSn2CSnTe4Mg2SnCSn2CSnTe4Mg2SnCSn2CSnTe4Mg2SnCSn2CSnTe4Mg2SnCSn2CSnTe4Mg2SnCSn2CSnTe4Mg2SnCSn2CSnTe4Mg2SnCSn2CSnTe4Mg2SnCSn2CSnTe4Mg2SnCSn2CSnTe4Mg2SnCSn2CSnTe4Mg2SnCSn2CSnTe4Mg2SnCSn2CSnTe4Mg2
_chemical_formula_sum              "H160 C304 N16 O24 Sn128 Te128 Mg64"
_cell_length_a       47.5087
_cell_length_b       55.0028
_cell_length_c       17.2309
_cell_angle_alpha    155.513
_cell_angle_beta     84.8434
_cell_angle_gamma    91.3526

_symmetry_space_group_name_H-M    'P1'
_space_group_IT_number       1

loop_
  _space_group_symop_operation_xyz
  'x, y, z'

loop_
  _atom_site_type_symbol
  _atom_site_label
  _atom_site_symmetry_multiplicity
  _atom_site_fract_x
  _atom_site_fract_y
  _atom_site_fract_z
  _atom_site_occupancy
  H   H1        1.0  0.12136  0.03919  0.33090  1.0000
  H   H2        1.0  0.07464  0.21711  0.67750  1.0000
  H   H3        1.0  0.03899  0.18503  0.18442  1.0000
  H   H4        1.0  0.11232  0.19003  0.49209  1.0000
  H   H5        1.0  0.16196  0.01939  0.49363  1.0000
  H   H6        1.0  0.13332  0.98823  0.01614  1.0000
  H   H7        1.0  0.00080  0.02502  0.33414  1.0000
  H   H8        1.0  0.97101  0.08052  0.48632  1.0000
  H   H9        1.0  0.01091  0.13480  0.64300  1.0000
  H   H10       1.0  0.00614  0.12757  0.52099  1.0000
  H   H11       1.0  0.20285  0.10234  0.39066  1.0000
  H   H12       1.0  0.45408  0.44417  0.30441  1.0000
  H   H13       1.0  0.45874  0.39290  0.23275  1.0000
  H   H14       1.0  0.50464  0.38228  0.13235  1.0000
  H   H15       1.0  0.50731  0.42997  0.35132  1.0000
  H   H16       1.0  0.48506  0.59053  0.61501  1.0000
  H   H17       1.0  0.47296  0.52567  0.39355  1.0000
  H   H18       1.0  0.46817  0.63146  0.11280  1.0000
  H   H19       1.0  0.44369  0.61797  0.15345  1.0000
  H   H20       1.0  0.54731  0.44985  0.95508  1.0000
  H   H21       1.0  0.57380  0.40380  0.92663  1.0000
  H   H22       1.0  0.60745  0.40965  0.04171  1.0000
  H   H23       1.0  0.66160  0.54628  0.42114  1.0000
  H   H24       1.0  0.63518  0.59441  0.45873  1.0000
  H   H25       1.0  0.58335  0.78218  0.35959  1.0000
  H   H26       1.0  0.55763  0.75189  0.39479  1.0000
  H   H27       1.0  0.61613  0.75250  0.64757  1.0000
  H   H28       1.0  0.65822  0.57245  0.11098  1.0000
  H   H29       1.0  0.63090  0.54797  0.15840  1.0000
  H   H30       1.0  0.46646  0.53884  0.07821  1.0000
  H   H31       1.0  0.43522  0.62784  0.29135  1.0000
  H   H32       1.0  0.38662  0.67846  0.43219  1.0000
  H   H33       1.0  0.32203  0.65903  0.56203  1.0000
  H   H34       1.0  0.35625  0.58829  0.42125  1.0000
  H   H35       1.0  0.38995  0.49063  0.37858  1.0000
  H   H36       1.0  0.42710  0.55018  0.50791  1.0000
  H   H37       1.0  0.35360  0.42909  0.16987  1.0000
  H   H38       1.0  0.33752  0.40172  0.33763  1.0000
  H   H39       1.0  0.37424  0.46200  0.98199  1.0000
  H   H40       1.0  0.54864  0.55187  0.40138  1.0000
  H   H41       1.0  0.52982  0.58336  0.06228  1.0000
  H   H42       1.0  0.51425  0.65850  0.18073  1.0000
  H   H43       1.0  0.52929  0.62185  0.50176  1.0000
  H   H44       1.0  0.53702  0.50493  0.92033  1.0000
  H   H45       1.0  0.54777  0.44785  0.31144  1.0000
  H   H46       1.0  0.51514  0.52520  0.15296  1.0000
  H   H47       1.0  0.51338  0.57755  0.22902  1.0000
  H   H48       1.0  0.26260  0.73669  0.45203  1.0000
  H   H49       1.0  0.25612  0.29297  0.36003  1.0000
  H   H50       1.0  0.67106  0.73030  0.21973  1.0000
  H   H51       1.0  0.69721  0.44082  0.44063  1.0000
  H   H52       1.0  0.95902  0.10173  0.41372  1.0000
  H   H53       1.0  0.94155  0.04124  0.27247  1.0000
  H   H54       1.0  0.98002  0.04568  0.13312  1.0000
  H   H55       1.0  0.94211  0.04871  0.15171  1.0000
  H   H56       1.0  0.95288  0.96583  0.16848  1.0000
  H   H57       1.0  0.91652  0.05157  0.40229  1.0000
  H   H58       1.0  0.87684  0.11341  0.12961  1.0000
  H   H59       1.0  0.83633  0.09684  0.31223  1.0000
  H   H60       1.0  0.87342  0.01455  0.09922  1.0000
  H   H61       1.0  0.75468  0.24361  0.45517  1.0000
  H   H62       1.0  0.04963  0.87019  0.21983  1.0000
  H   H63       1.0  0.07378  0.83008  0.21674  1.0000
  H   H64       1.0  0.10434  0.84059  0.85297  1.0000
  H   H65       1.0  0.14481  0.99760  0.32184  1.0000
  H   H66       1.0  0.01771  0.93644  0.36722  1.0000
  H   H67       1.0  0.01853  0.99085  0.45276  1.0000
  H   H68       1.0  0.19529  0.87154  0.24614  1.0000
  H   H69       1.0  0.97398  0.88761  0.95547  1.0000
  H   H70       1.0  0.98500  0.83224  0.86203  1.0000
  H   H71       1.0  0.99660  0.95747  0.25343  1.0000
  H   H72       1.0  0.01907  0.91169  0.04899  1.0000
  H   H73       1.0  0.93582  0.85366  0.29467  1.0000
  H   H74       1.0  0.97274  0.90942  0.89059  1.0000
  H   H75       1.0  0.88943  0.82110  0.20870  1.0000
  H   H76       1.0  0.83360  0.85965  0.13815  1.0000
  H   H77       1.0  0.86878  0.91445  0.22680  1.0000
  H   H78       1.0  0.05433  0.92385  0.17217  1.0000
  H   H79       1.0  0.05654  0.86962  0.08836  1.0000
  H   H80       1.0  0.79556  0.71623  0.08915  1.0000
  H   H81       1.0  0.11977  0.04137  0.83693  1.0000
  H   H82       1.0  0.07343  0.21787  0.17858  1.0000
  H   H83       1.0  0.04020  0.18396  0.68240  1.0000
  H   H84       1.0  0.11079  0.19085  0.99299  1.0000
  H   H85       1.0  0.16359  0.01876  0.99427  1.0000
  H   H86       1.0  0.13204  0.98903  0.51657  1.0000
  H   H87       1.0  0.99875  0.02807  0.84472  1.0000
  H   H88       1.0  0.96960  0.08408  0.99543  1.0000
  H   H89       1.0  0.00976  0.13699  0.14859  1.0000
  H   H90       1.0  0.00519  0.12893  0.02418  1.0000
  H   H91       1.0  0.20571  0.09898  0.88479  1.0000
  H   H92       1.0  0.45391  0.43457  0.78633  1.0000
  H   H93       1.0  0.45963  0.38636  0.72641  1.0000
  H   H94       1.0  0.50566  0.38019  0.64186  1.0000
  H   H95       1.0  0.50598  0.43135  0.86869  1.0000
  H   H96       1.0  0.48757  0.57298  0.06321  1.0000
  H   H97       1.0  0.47441  0.51155  0.84546  1.0000
  H   H98       1.0  0.46548  0.64010  0.63293  1.0000
  H   H99       1.0  0.44094  0.62999  0.68487  1.0000
  H   H100      1.0  0.55265  0.44071  0.41122  1.0000
  H   H101      1.0  0.57713  0.39375  0.38350  1.0000
  H   H102      1.0  0.60821  0.39978  0.50623  1.0000
  H   H103      1.0  0.65992  0.54038  0.91288  1.0000
  H   H104      1.0  0.63575  0.58837  0.94605  1.0000
  H   H105      1.0  0.58483  0.78650  0.86558  1.0000
  H   H106      1.0  0.55807  0.76138  0.91685  1.0000
  H   H107      1.0  0.61456  0.75332  0.15477  1.0000
  H   H108      1.0  0.65993  0.57616  0.61793  1.0000
  H   H109      1.0  0.63392  0.54672  0.65042  1.0000
  H   H110      1.0  0.46850  0.55109  0.61445  1.0000
  H   H111      1.0  0.43619  0.64046  0.83302  1.0000
  H   H112      1.0  0.38694  0.68699  0.96128  1.0000
  H   H113      1.0  0.32183  0.65513  0.04771  1.0000
  H   H114      1.0  0.35666  0.58419  0.90377  1.0000
  H   H115      1.0  0.39231  0.47606  0.82632  1.0000
  H   H116      1.0  0.42967  0.53627  0.96246  1.0000
  H   H117      1.0  0.35540  0.41810  0.62389  1.0000
  H   H118      1.0  0.33903  0.39608  0.83609  1.0000
  H   H119      1.0  0.37307  0.46797  0.48927  1.0000
  H   H120      1.0  0.55045  0.53817  0.85677  1.0000
  H   H121      1.0  0.52769  0.59774  0.60763  1.0000
  H   H122      1.0  0.51280  0.67204  0.72278  1.0000
  H   H123      1.0  0.53175  0.60971  0.96358  1.0000
  H   H124      1.0  0.53925  0.50411  0.40661  1.0000
  H   H125      1.0  0.54645  0.45181  0.83745  1.0000
  H   H126      1.0  0.51913  0.52058  0.62964  1.0000
  H   H127      1.0  0.51778  0.57535  0.71556  1.0000
  H   H128      1.0  0.26285  0.73643  0.95058  1.0000
  H   H129      1.0  0.25976  0.29681  0.89569  1.0000
  H   H130      1.0  0.66957  0.73899  0.74563  1.0000
  H   H131      1.0  0.69297  0.42280  0.89327  1.0000
  H   H132      1.0  0.95960  0.10478  0.92023  1.0000
  H   H133      1.0  0.94035  0.04710  0.78795  1.0000
  H   H134      1.0  0.97901  0.04861  0.63991  1.0000
  H   H135      1.0  0.94109  0.05271  0.66307  1.0000
  H   H136      1.0  0.95487  0.96162  0.65972  1.0000
  H   H137      1.0  0.91911  0.04818  0.89472  1.0000
  H   H138      1.0  0.87369  0.11525  0.63413  1.0000
  H   H139      1.0  0.83519  0.09817  0.81758  1.0000
  H   H140      1.0  0.87269  0.01588  0.60203  1.0000
  H   H141      1.0  0.75040  0.23636  0.93959  1.0000
  H   H142      1.0  0.05023  0.87015  0.71958  1.0000
  H   H143      1.0  0.07376  0.82973  0.71637  1.0000
  H   H144      1.0  0.10463  0.84152  0.35433  1.0000
  H   H145      1.0  0.14386  0.00017  0.82840  1.0000
  H   H146      1.0  0.01882  0.93700  0.86920  1.0000
  H   H147      1.0  0.01991  0.99079  0.95213  1.0000
  H   H148      1.0  0.19623  0.87276  0.74685  1.0000
  H   H149      1.0  0.97480  0.88041  0.43803  1.0000
  H   H150      1.0  0.98614  0.82778  0.35580  1.0000
  H   H151      1.0  0.99726  0.95398  0.74290  1.0000
  H   H152      1.0  0.01981  0.90708  0.53657  1.0000
  H   H153      1.0  0.93737  0.84906  0.78261  1.0000
  H   H154      1.0  0.97108  0.91428  0.40334  1.0000
  H   H155      1.0  0.89055  0.81777  0.70095  1.0000
  H   H156      1.0  0.83494  0.85695  0.63182  1.0000
  H   H157      1.0  0.87006  0.91256  0.72400  1.0000
  H   H158      1.0  0.05507  0.92266  0.66855  1.0000
  H   H159      1.0  0.05785  0.86940  0.58892  1.0000
  H   H160      1.0  0.79635  0.71301  0.58019  1.0000
  C   C1        1.0  0.46507  0.43418  0.32830  1.0000
  C   C2        1.0  0.49715  0.42658  0.28699  1.0000
  C   C3        1.0  0.48018  0.56741  0.49555  1.0000
  C   C4        1.0  0.45637  0.60667  0.57214  1.0000
  C   C5        1.0  0.59932  0.47462  0.14155  1.0000
  C   C6        1.0  0.60553  0.53011  0.27083  1.0000
  C   C7        1.0  0.58848  0.55901  0.29828  1.0000
  C   C8        1.0  0.56824  0.52891  0.18012  1.0000
  C   C9        1.0  0.56336  0.47240  0.04403  1.0000
  C   C10       1.0  0.57811  0.44654  0.02823  1.0000
  C   C11       1.0  0.61358  0.45033  0.13478  1.0000
  C   C12       1.0  0.63496  0.47692  0.24178  1.0000
  C   C13       1.0  0.64357  0.52705  0.34749  1.0000
  C   C14       1.0  0.62890  0.55417  0.36774  1.0000
  C   C15       1.0  0.58999  0.62189  0.45882  1.0000
  C   C16       1.0  0.60732  0.63631  0.43339  1.0000
  C   C17       1.0  0.60484  0.69601  0.57865  1.0000
  C   C18       1.0  0.58625  0.73623  0.24463  1.0000
  C   C19       1.0  0.57185  0.71969  0.26436  1.0000
  C   C20       1.0  0.57425  0.65942  0.11135  1.0000
  C   C21       1.0  0.61950  0.70772  0.54017  1.0000
  C   C22       1.0  0.63761  0.66338  0.36915  1.0000
  C   C23       1.0  0.64278  0.60677  0.23953  1.0000
  C   C24       1.0  0.62755  0.59281  0.26637  1.0000
  C   C25       1.0  0.39978  0.61824  0.34760  1.0000
  C   C26       1.0  0.39098  0.58905  0.33272  1.0000
  C   C27       1.0  0.41019  0.54208  0.22555  1.0000
  C   C28       1.0  0.43589  0.52235  0.12476  1.0000
  C   C29       1.0  0.44530  0.55362  0.14961  1.0000
  C   C30       1.0  0.42790  0.60195  0.26494  1.0000
  C   C31       1.0  0.37998  0.65995  0.43418  1.0000
  C   C32       1.0  0.35172  0.67273  0.50219  1.0000
  C   C33       1.0  0.34368  0.64700  0.50003  1.0000
  C   C34       1.0  0.36283  0.60746  0.42159  1.0000
  C   C35       1.0  0.40520  0.52070  0.24393  1.0000
  C   C36       1.0  0.38475  0.48304  0.15868  1.0000
  C   C37       1.0  0.37899  0.47236  0.20932  1.0000
  C   C38       1.0  0.39457  0.49795  0.33783  1.0000
  C   C39       1.0  0.41550  0.53164  0.41103  1.0000
  C   C40       1.0  0.42112  0.54271  0.36297  1.0000
  C   C41       1.0  0.35793  0.43666  0.12982  1.0000
  C   C42       1.0  0.34348  0.40928  0.99732  1.0000
  C   C43       1.0  0.35011  0.41782  0.94113  1.0000
  C   C44       1.0  0.36974  0.45455  0.02234  1.0000
  C   C45       1.0  0.52895  0.58312  0.50389  1.0000
  C   C46       1.0  0.53227  0.62316  0.06351  1.0000
  C   C47       1.0  0.53011  0.48845  0.92991  1.0000
  C   C48       1.0  0.52632  0.53821  0.13611  1.0000
  C   C49       1.0  0.28103  0.76037  0.51977  1.0000
  C   C50       1.0  0.28514  0.79515  0.05625  1.0000
  C   C51       1.0  0.30666  0.83308  0.16038  1.0000
  C   C52       1.0  0.27569  0.26652  0.25782  1.0000
  C   C53       1.0  0.28454  0.21694  0.15504  1.0000
  C   C54       1.0  0.31049  0.17917  0.02286  1.0000
  C   C55       1.0  0.68165  0.68993  0.12695  1.0000
  C   C56       1.0  0.69994  0.66448  0.50305  1.0000
  C   C57       1.0  0.71264  0.60688  0.35672  1.0000
  C   C58       1.0  0.67999  0.41549  0.35725  1.0000
  C   C59       1.0  0.67423  0.37467  0.29412  1.0000
  C   C60       1.0  0.64215  0.33453  0.68241  1.0000
  C   C61       1.0  0.97922  0.88007  0.99374  1.0000
  C   C62       1.0  0.00436  0.91123  0.10103  1.0000
  C   C63       1.0  0.96078  0.05292  0.27279  1.0000
  C   C64       1.0  0.96198  0.03079  0.12493  1.0000
  C   C65       1.0  0.09460  0.90651  0.95742  1.0000
  C   C66       1.0  0.09880  0.96422  0.09650  1.0000
  C   C67       1.0  0.08422  0.98832  0.10275  1.0000
  C   C68       1.0  0.06755  0.95357  0.96383  1.0000
  C   C69       1.0  0.06293  0.89670  0.32594  1.0000
  C   C70       1.0  0.07632  0.87432  0.32465  1.0000
  C   C71       1.0  0.10792  0.88431  0.95937  1.0000
  C   C72       1.0  0.12576  0.91632  0.08946  1.0000
  C   C73       1.0  0.13088  0.97201  0.21964  1.0000
  C   C74       1.0  0.11761  0.99574  0.22575  1.0000
  C   C75       1.0  0.08367  0.05155  0.26370  1.0000
  C   C76       1.0  0.10430  0.07104  0.26511  1.0000
  C   C77       1.0  0.09992  0.13055  0.40924  1.0000
  C   C78       1.0  0.07702  0.17116  0.56252  1.0000
  C   C79       1.0  0.05765  0.15254  0.56428  1.0000
  C   C80       1.0  0.06012  0.09207  0.40968  1.0000
  C   C81       1.0  0.11702  0.14578  0.38704  1.0000
  C   C82       1.0  0.13862  0.10500  0.23208  1.0000
  C   C83       1.0  0.14559  0.04979  0.10895  1.0000
  C   C84       1.0  0.12875  0.03251  0.12130  1.0000
  C   C85       1.0  0.89501  0.04621  0.50131  1.0000
  C   C86       1.0  0.89489  0.01567  0.48546  1.0000
  C   C87       1.0  0.91628  0.96606  0.35063  1.0000
  C   C88       1.0  0.93637  0.94719  0.23274  1.0000
  C   C89       1.0  0.93689  0.97915  0.25510  1.0000
  C   C90       1.0  0.91657  0.02734  0.38627  1.0000
  C   C91       1.0  0.87605  0.09230  0.12492  1.0000
  C   C92       1.0  0.85377  0.11147  0.23654  1.0000
  C   C93       1.0  0.85328  0.08193  0.22358  1.0000
  C   C94       1.0  0.87416  0.03552  0.10344  1.0000
  C   C95       1.0  0.91973  0.93596  0.33892  1.0000
  C   C96       1.0  0.89944  0.90156  0.27592  1.0000
  C   C97       1.0  0.90539  0.87242  0.26314  1.0000
  C   C98       1.0  0.93154  0.87662  0.30738  1.0000
  C   C99       1.0  0.95088  0.90963  0.36700  1.0000
  C   C100      1.0  0.94473  0.93990  0.38567  1.0000
  C   C101      1.0  0.88492  0.84056  0.20922  1.0000
  C   C102      1.0  0.85887  0.83655  0.16864  1.0000
  C   C103      1.0  0.85349  0.86383  0.17527  1.0000
  C   C104      1.0  0.87323  0.89459  0.22488  1.0000
  C   C105      1.0  0.99107  0.05834  0.39163  1.0000
  C   C106      1.0  0.01166  0.10287  0.50182  1.0000
  C   C107      1.0  0.04219  0.90557  0.16861  1.0000
  C   C108      1.0  0.03141  0.95347  0.36992  1.0000
  C   C109      1.0  0.77445  0.26272  0.51188  1.0000
  C   C110      1.0  0.77213  0.30124  0.07414  1.0000
  C   C111      1.0  0.79322  0.33973  0.18959  1.0000
  C   C112      1.0  0.78451  0.75411  0.17027  1.0000
  C   C113      1.0  0.76106  0.78341  0.29853  1.0000
  C   C114      1.0  0.74497  0.83540  0.42172  1.0000
  C   C115      1.0  0.18391  0.13455  0.49910  1.0000
  C   C116      1.0  0.17749  0.17628  0.56493  1.0000
  C   C117      1.0  0.15429  0.22306  0.71548  1.0000
  C   C118      1.0  0.17639  0.84977  0.18061  1.0000
  C   C119      1.0  0.17060  0.81487  0.14196  1.0000
  C   C120      1.0  0.14739  0.78129  0.04782  1.0000
  C   C121      1.0  0.46458  0.42815  0.82164  1.0000
  C   C122      1.0  0.49665  0.42462  0.79419  1.0000
  C   C123      1.0  0.48220  0.55355  0.95234  1.0000
  C   C124      1.0  0.45871  0.59659  0.04406  1.0000
  C   C125      1.0  0.60123  0.46591  0.61010  1.0000
  C   C126      1.0  0.60728  0.52248  0.74593  1.0000
  C   C127      1.0  0.59119  0.55179  0.77292  1.0000
  C   C128      1.0  0.57205  0.52140  0.64936  1.0000
  C   C129      1.0  0.56756  0.46374  0.50611  1.0000
  C   C130      1.0  0.58133  0.43725  0.48990  1.0000
  C   C131      1.0  0.61417  0.44142  0.60485  1.0000
  C   C132      1.0  0.63396  0.46926  0.72116  1.0000
  C   C133      1.0  0.64278  0.52042  0.83298  1.0000
  C   C134      1.0  0.62944  0.54742  0.85062  1.0000
  C   C135      1.0  0.59196  0.61554  0.93946  1.0000
  C   C136      1.0  0.60869  0.63298  0.92332  1.0000
  C   C137      1.0  0.60487  0.69339  0.07327  1.0000
  C   C138      1.0  0.58681  0.74111  0.75434  1.0000
  C   C139      1.0  0.57182  0.72745  0.78292  1.0000
  C   C140      1.0  0.57305  0.66798  0.63513  1.0000
  C   C141      1.0  0.61896  0.70809  0.04391  1.0000
  C   C142      1.0  0.63767  0.66598  0.87718  1.0000
  C   C143      1.0  0.64403  0.60872  0.74309  1.0000
  C   C144      1.0  0.62955  0.59194  0.76138  1.0000
  C   C145      1.0  0.40053  0.62423  0.86601  1.0000
  C   C146      1.0  0.39179  0.59110  0.83630  1.0000
  C   C147      1.0  0.41142  0.54376  0.72582  1.0000
  C   C148      1.0  0.43766  0.52819  0.63750  1.0000
  C   C149      1.0  0.44700  0.56352  0.67826  1.0000
  C   C150      1.0  0.42906  0.61188  0.79602  1.0000
  C   C151      1.0  0.38026  0.66571  0.95320  1.0000
  C   C152      1.0  0.35172  0.67484  0.00875  1.0000
  C   C153      1.0  0.34375  0.64576  0.99437  1.0000
  C   C154      1.0  0.36325  0.60610  0.91419  1.0000
  C   C155      1.0  0.40639  0.51821  0.72993  1.0000
  C   C156      1.0  0.38546  0.48073  0.64242  1.0000
  C   C157      1.0  0.38029  0.46543  0.67841  1.0000
  C   C158      1.0  0.39651  0.48690  0.79671  1.0000
  C   C159      1.0  0.41759  0.52085  0.87339  1.0000
  C   C160      1.0  0.42275  0.53635  0.83949  1.0000
  C   C161      1.0  0.35923  0.42898  0.59426  1.0000
  C   C162      1.0  0.34393  0.40575  0.47232  1.0000
  C   C163      1.0  0.34939  0.41990  0.43366  1.0000
  C   C164      1.0  0.36929  0.45686  0.51814  1.0000
  C   C165      1.0  0.53087  0.56960  0.96073  1.0000
  C   C166      1.0  0.53039  0.63588  0.60284  1.0000
  C   C167      1.0  0.53228  0.48683  0.41332  1.0000
  C   C168      1.0  0.53021  0.53441  0.61551  1.0000
  C   C169      1.0  0.28095  0.76100  0.02165  1.0000
  C   C170      1.0  0.28548  0.79381  0.55176  1.0000
  C   C171      1.0  0.30756  0.83038  0.65091  1.0000
  C   C172      1.0  0.27473  0.26798  0.77217  1.0000
  C   C173      1.0  0.27933  0.21044  0.62909  1.0000
  C   C174      1.0  0.29866  0.16575  0.45755  1.0000
  C   C175      1.0  0.67980  0.69796  0.65016  1.0000
  C   C176      1.0  0.70233  0.65713  0.98260  1.0000
  C   C177      1.0  0.71517  0.59991  0.83821  1.0000
  C   C178      1.0  0.67413  0.40213  0.82447  1.0000
  C   C179      1.0  0.66648  0.36426  0.77197  1.0000
  C   C180      1.0  0.65304  0.33722  0.17637  1.0000
  C   C181      1.0  0.98021  0.87521  0.48342  1.0000
  C   C182      1.0  0.00526  0.90749  0.59162  1.0000
  C   C183      1.0  0.96014  0.05621  0.78117  1.0000
  C   C184      1.0  0.96103  0.03402  0.63314  1.0000
  C   C185      1.0  0.09417  0.90750  0.45952  1.0000
  C   C186      1.0  0.09791  0.96548  0.59953  1.0000
  C   C187      1.0  0.08309  0.98924  0.60505  1.0000
  C   C188      1.0  0.06646  0.95417  0.46558  1.0000
  C   C189      1.0  0.06360  0.89634  0.82497  1.0000
  C   C190      1.0  0.07665  0.87377  0.82356  1.0000
  C   C191      1.0  0.10784  0.88549  0.46161  1.0000
  C   C192      1.0  0.12558  0.91793  0.59272  1.0000
  C   C193      1.0  0.13011  0.97411  0.72479  1.0000
  C   C194      1.0  0.11648  0.99759  0.73053  1.0000
  C   C195      1.0  0.08237  0.05238  0.76519  1.0000
  C   C196      1.0  0.10286  0.07172  0.76553  1.0000
  C   C197      1.0  0.09850  0.13121  0.90956  1.0000
  C   C198      1.0  0.07572  0.17191  0.06350  1.0000
  C   C199      1.0  0.05639  0.15342  0.06586  1.0000
  C   C200      1.0  0.05889  0.09300  0.91175  1.0000
  C   C201      1.0  0.11548  0.14647  0.88719  1.0000
  C   C202      1.0  0.13695  0.10570  0.73155  1.0000
  C   C203      1.0  0.14394  0.05044  0.60832  1.0000
  C   C204      1.0  0.12726  0.03322  0.62126  1.0000
  C   C205      1.0  0.89706  0.04375  0.99601  1.0000
  C   C206      1.0  0.89639  0.01336  0.98073  1.0000
  C   C207      1.0  0.91758  0.96345  0.84576  1.0000
  C   C208      1.0  0.93775  0.94384  0.72612  1.0000
  C   C209      1.0  0.93876  0.97555  0.74765  1.0000
  C   C210      1.0  0.91876  0.02422  0.87964  1.0000
  C   C211      1.0  0.87360  0.09421  0.62970  1.0000
  C   C212      1.0  0.85170  0.11292  0.74130  1.0000
  C   C213      1.0  0.85183  0.08339  0.72834  1.0000
  C   C214      1.0  0.87297  0.03720  0.60748  1.0000
  C   C215      1.0  0.92093  0.93340  0.83427  1.0000
  C   C216      1.0  0.90065  0.89899  0.77113  1.0000
  C   C217      1.0  0.90667  0.86924  0.75616  1.0000
  C   C218      1.0  0.93300  0.87255  0.79729  1.0000
  C   C219      1.0  0.95237  0.90553  0.85688  1.0000
  C   C220      1.0  0.94608  0.93662  0.87859  1.0000
  C   C221      1.0  0.88611  0.83745  0.70219  1.0000
  C   C222      1.0  0.86006  0.83371  0.66216  1.0000
  C   C223      1.0  0.85474  0.86120  0.66949  1.0000
  C   C224      1.0  0.87448  0.89222  0.72040  1.0000
  C   C225      1.0  0.98967  0.06086  0.89901  1.0000
  C   C226      1.0  0.01059  0.10462  0.00656  1.0000
  C   C227      1.0  0.04325  0.90477  0.66710  1.0000
  C   C228      1.0  0.03260  0.95336  0.86961  1.0000
  C   C229      1.0  0.76922  0.25861  0.00564  1.0000
  C   C230      1.0  0.77871  0.30437  0.57689  1.0000
  C   C231      1.0  0.80161  0.33863  0.67709  1.0000
  C   C232      1.0  0.78543  0.75143  0.66363  1.0000
  C   C233      1.0  0.76214  0.78067  0.79240  1.0000
  C   C234      1.0  0.74622  0.83325  0.91834  1.0000
  C   C235      1.0  0.18649  0.13059  0.99078  1.0000
  C   C236      1.0  0.17974  0.17162  0.05395  1.0000
  C   C237      1.0  0.15659  0.21851  0.20509  1.0000
  C   C238      1.0  0.17725  0.85114  0.68207  1.0000
  C   C239      1.0  0.17142  0.81654  0.64463  1.0000
  C   C240      1.0  0.14832  0.78266  0.54943  1.0000
  N   N1        1.0  0.32358  0.86590  0.24836  1.0000
  N   N2        1.0  0.33157  0.14673  0.91182  1.0000
  N   N3        1.0  0.62226  0.30931  0.60990  1.0000
  N   N4        1.0  0.72331  0.55872  0.22946  1.0000
  N   N5        1.0  0.80946  0.37374  0.29079  1.0000
  N   N6        1.0  0.73103  0.87803  0.52481  1.0000
  N   N7        1.0  0.12879  0.75239  0.96882  1.0000
  N   N8        1.0  0.13590  0.26308  0.84107  1.0000
  N   N9        1.0  0.32502  0.86196  0.73469  1.0000
  N   N10       1.0  0.31381  0.12762  0.31220  1.0000
  N   N11       1.0  0.63607  0.30503  0.07809  1.0000
  N   N12       1.0  0.72568  0.55199  0.71344  1.0000
  N   N13       1.0  0.81963  0.36890  0.76396  1.0000
  N   N14       1.0  0.73254  0.87642  0.02354  1.0000
  N   N15       1.0  0.12991  0.75328  0.46895  1.0000
  N   N16       1.0  0.13840  0.25887  0.33202  1.0000
  O   O1        1.0  0.45297  0.47415  0.01194  1.0000
  O   O2        1.0  0.50565  0.55191  0.39956  1.0000
  O   O3        1.0  0.55867  0.64610  0.14077  1.0000
  O   O4        1.0  0.44153  0.57591  0.43013  1.0000
  O   O5        1.0  0.50437  0.47105  0.36155  1.0000
  O   O6        1.0  0.55295  0.55777  0.20755  1.0000
  O   O7        1.0  0.95436  0.89588  0.09390  1.0000
  O   O8        1.0  0.98576  0.02692  0.23213  1.0000
  O   O9        1.0  0.03975  0.06952  0.39233  1.0000
  O   O10       1.0  0.96713  0.96717  0.93315  1.0000
  O   O11       1.0  0.01878  0.87896  0.06687  1.0000
  O   O12       1.0  0.05563  0.97856  0.97274  1.0000
  O   O13       1.0  0.45577  0.47987  0.51991  1.0000
  O   O14       1.0  0.50736  0.53905  0.85797  1.0000
  O   O15       1.0  0.55715  0.65812  0.67553  1.0000
  O   O16       1.0  0.44313  0.57065  0.91322  1.0000
  O   O17       1.0  0.50311  0.46840  0.86483  1.0000
  O   O18       1.0  0.55748  0.55096  0.67802  1.0000
  O   O19       1.0  0.95541  0.89214  0.58672  1.0000
  O   O20       1.0  0.98443  0.02870  0.73780  1.0000
  O   O21       1.0  0.03858  0.07085  0.89636  1.0000
  O   O22       1.0  0.96571  0.97050  0.44004  1.0000
  O   O23       1.0  0.01987  0.87720  0.56443  1.0000
  O   O24       1.0  0.05424  0.97917  0.47489  1.0000
  C  Sn1       1.0  0.23028  0.76226  0.84350  1.0000
  C   C241      1.0  0.23032  0.80161  0.89563  1.0000
  C  Sn2       1.0  0.25170  0.83779  0.98906  1.0000
  C  Sn3       1.0  0.29833  0.54995  0.03116  1.0000
  C   C242      1.0  0.27347  0.79520  0.97901  1.0000
  C  Sn4       1.0  0.25209  0.75901  0.88560  1.0000
  O  Te1       1.0  0.20869  0.72650  0.75019  1.0000
  O  Te2       1.0  0.27610  0.59221  0.03982  1.0000
  O  Te3       1.0  0.31993  0.58575  0.12455  1.0000
  O  Te4       1.0  0.25251  0.72002  0.83482  1.0000
  Mg  Mg1       1.0  0.31016  0.63179  0.16465  1.0000
  Mg  Mg2       1.0  0.21848  0.68040  0.70991  1.0000
  C  Sn5       1.0  0.26589  0.83060  0.46812  1.0000
  C   C243      1.0  0.24569  0.79479  0.34641  1.0000
  C  Sn6       1.0  0.23396  0.75976  0.30198  1.0000
  C  Sn7       1.0  0.24259  0.76056  0.38094  1.0000
  C   C244      1.0  0.26277  0.79636  0.50259  1.0000
  C  Sn8       1.0  0.27452  0.83140  0.54707  1.0000
  O  Te5       1.0  0.27734  0.86527  0.51058  1.0000
  O  Te6       1.0  0.21381  0.72430  0.17991  1.0000
  O  Te7       1.0  0.23112  0.72584  0.33837  1.0000
  O  Te8       1.0  0.29466  0.86685  0.66909  1.0000
  Mg  Mg3       1.0  0.20436  0.68492  0.16498  1.0000
  Mg  Mg4       1.0  0.30411  0.90627  0.68420  1.0000
  C  Sn9       1.0  0.69404  0.30335  0.26280  1.0000
  C   C245      1.0  0.71819  0.32596  0.34943  1.0000
  C  Sn10      1.0  0.72806  0.37309  0.44555  1.0000
  C  Sn11      1.0  0.71348  0.39819  0.45540  1.0000
  C   C246      1.0  0.68934  0.37559  0.36884  1.0000
  C  Sn12      1.0  0.67946  0.32844  0.27265  1.0000
  O  Te9       1.0  0.68455  0.25621  0.16748  1.0000
  O  Te10      1.0  0.75226  0.39492  0.53099  1.0000
  O  Te11      1.0  0.72299  0.44536  0.55082  1.0000
  O  Te12      1.0  0.65527  0.30662  0.18728  1.0000
  Mg  Mg5       1.0  0.75691  0.45968  0.64453  1.0000
  Mg  Mg6       1.0  0.65060  0.24189  0.07379  1.0000
  C  Sn13      1.0  0.68359  0.29806  0.76163  1.0000
  C   C247      1.0  0.71012  0.31303  0.82018  1.0000
  C  Sn14      1.0  0.72330  0.35230  0.88593  1.0000
  C  Sn15      1.0  0.70966  0.37717  0.89345  1.0000
  C   C248      1.0  0.68314  0.36221  0.83496  1.0000
  C  Sn16      1.0  0.66995  0.32293  0.76915  1.0000
  O  Te13      1.0  0.67080  0.25870  0.69641  1.0000
  O  Te14      1.0  0.74984  0.36658  0.94364  1.0000
  O  Te15      1.0  0.72247  0.41655  0.95874  1.0000
  O  Te16      1.0  0.64342  0.30865  0.71150  1.0000
  Mg  Mg7       1.0  0.78349  0.13773  0.02168  1.0000
  Mg  Mg8       1.0  0.63457  0.25295  0.63353  1.0000
  C  Sn17      1.0  0.70808  0.76236  0.62631  1.0000
  C   C249      1.0  0.73008  0.73376  0.49149  1.0000
  C  Sn18      1.0  0.74171  0.67513  0.33358  1.0000
  C  Sn19      1.0  0.73112  0.64443  0.30983  1.0000
  C   C250      1.0  0.70914  0.67302  0.44458  1.0000
  C  Sn20      1.0  0.69750  0.73165  0.60257  1.0000
  O  Te17      1.0  0.69677  0.82098  0.78308  1.0000
  O  Te18      1.0  0.76369  0.64748  0.20073  1.0000
  O  Te19      1.0  0.74245  0.58576  0.15290  1.0000
  O  Te20      1.0  0.67553  0.75929  0.73534  1.0000
  Mg  Mg9       1.0  0.77213  0.56718  0.01086  1.0000
  Mg  Mg10      1.0  0.66706  0.83958  0.92520  1.0000
  C  Sn21      1.0  0.23682  0.24015  0.33339  1.0000
  C   C251      1.0  0.26538  0.22162  0.25335  1.0000
  C  Sn22      1.0  0.28250  0.18162  0.18045  1.0000
  C  Sn23      1.0  0.27082  0.15963  0.18759  1.0000
  C   C252      1.0  0.24227  0.17815  0.26756  1.0000
  C  Sn24      1.0  0.22514  0.21816  0.34052  1.0000
  O  Te21      1.0  0.22010  0.28017  0.40540  1.0000
  O  Te22      1.0  0.31100  0.16376  0.10119  1.0000
  O  Te23      1.0  0.28756  0.11958  0.11550  1.0000
  O  Te24      1.0  0.19665  0.23601  0.41972  1.0000
  Mg  Mg11      1.0  0.32518  0.10849  0.02161  1.0000
  Mg  Mg12      1.0  0.18245  0.29125  0.49925  1.0000
  C  Sn25      1.0  0.30345  0.67655  0.43308  1.0000
  C   C253      1.0  0.32919  0.69332  0.50090  1.0000
  C  Sn26      1.0  0.33816  0.74529  0.62211  1.0000
  C  Sn27      1.0  0.32104  0.78128  0.67678  1.0000
  C   C254      1.0  0.29532  0.76451  0.60900  1.0000
  C  Sn28      1.0  0.28633  0.71253  0.48775  1.0000
  O  Te25      1.0  0.29491  0.62440  0.31205  1.0000
  O  Te26      1.0  0.36397  0.76113  0.68802  1.0000
  O  Te27      1.0  0.32961  0.83345  0.79790  1.0000
  O  Te28      1.0  0.26053  0.69670  0.42188  1.0000
  Mg  Mg13      1.0  0.36646  0.83626  0.85013  1.0000
  Mg  Mg14      1.0  0.25802  0.62160  0.25985  1.0000
  C  Sn29      1.0  0.32365  0.27549  0.17734  1.0000
  C   C255      1.0  0.29837  0.29299  0.27537  1.0000
  C  Sn30      1.0  0.28263  0.34875  0.42859  1.0000
  C  Sn31      1.0  0.29236  0.38783  0.48494  1.0000
  C   C256      1.0  0.31762  0.37032  0.38691  1.0000
  C  Sn32      1.0  0.33337  0.31457  0.23368  1.0000
  O  Te29      1.0  0.33903  0.21953  0.02457  1.0000
  O  Te30      1.0  0.25743  0.36526  0.52445  1.0000
  O  Te31      1.0  0.27695  0.44382  0.63784  1.0000
  O  Te32      1.0  0.35856  0.29805  0.13784  1.0000
  Mg  Mg15      1.0  0.24393  0.44606  0.72353  1.0000
  Mg  Mg16      1.0  0.34724  0.50185  0.93868  1.0000
  C  Sn33      1.0  0.31517  0.30321  0.69636  1.0000
  C   C257      1.0  0.31539  0.36421  0.88048  1.0000
  C  Sn34      1.0  0.32787  0.11034  0.03727  1.0000
  C  Sn35      1.0  0.31504  0.07944  0.00946  1.0000
  C   C258      1.0  0.29001  0.30306  0.82544  1.0000
  C  Sn36      1.0  0.30235  0.27230  0.66856  1.0000
  O  Te33      1.0  0.32765  0.27340  0.54171  1.0000
  O  Te34      1.0  0.32834  0.17133  0.21998  1.0000
  O  Te35      1.0  0.30256  0.10930  0.16432  1.0000
  O  Te36      1.0  0.30188  0.21135  0.48595  1.0000
  Mg  Mg17      1.0  0.30859  0.19232  0.38540  1.0000
  Mg  Mg18      1.0  0.32164  0.19031  0.32043  1.0000
  C  Sn37      1.0  0.68166  0.45189  0.26606  1.0000
  C   C259      1.0  0.65582  0.44228  0.21099  1.0000
  C  Sn38      1.0  0.63293  0.43169  0.23252  1.0000
  C  Sn39      1.0  0.63592  0.43071  0.31084  1.0000
  C   C260      1.0  0.66174  0.44032  0.36590  1.0000
  C  Sn40      1.0  0.68465  0.45091  0.34439  1.0000
  O  Te37      1.0  0.70427  0.46240  0.24325  1.0000
  O  Te38      1.0  0.60731  0.42219  0.17636  1.0000
  O  Te39      1.0  0.61328  0.42019  0.33362  1.0000
  O  Te40      1.0  0.71025  0.46042  0.40053  1.0000
  Mg  Mg19      1.0  0.58267  0.40975  0.23599  1.0000
  Mg  Mg20      1.0  0.73490  0.47289  0.34106  1.0000
  C  Sn41      1.0  0.68181  0.62523  0.08322  1.0000
  C   C261      1.0  0.66964  0.65948  0.12384  1.0000
  C  Sn42      1.0  0.64780  0.70639  0.27869  1.0000
  C  Sn43      1.0  0.63793  0.71935  0.39545  1.0000
  C   C262      1.0  0.65011  0.68511  0.35483  1.0000
  C  Sn44      1.0  0.67195  0.63819  0.19998  1.0000
  O  Te41      1.0  0.67880  0.86314  0.92770  1.0000
  O  Te42      1.0  0.63595  0.73999  0.31643  1.0000
  O  Te43      1.0  0.61610  0.76606  0.55107  1.0000
  O  Te44      1.0  0.68379  0.60460  0.16225  1.0000
  Mg  Mg21      1.0  0.60675  0.79904  0.54455  1.0000
  Mg  Mg22      1.0  0.68818  0.83015  0.93424  1.0000
  C  Sn45      1.0  0.73747  0.26015  0.84593  1.0000
  C   C263      1.0  0.75669  0.29467  0.97347  1.0000
  C  Sn46      1.0  0.78391  0.06586  0.10419  1.0000
  C  Sn47      1.0  0.76673  0.08762  0.10759  1.0000
  C   C264      1.0  0.72269  0.33770  0.98012  1.0000
  C  Sn48      1.0  0.72028  0.28191  0.84933  1.0000
  O  Te45      1.0  0.73543  0.20452  0.71648  1.0000
  O  Te46      1.0  0.80329  0.09956  0.23024  1.0000
  O  Te47      1.0  0.76879  0.14330  0.23718  1.0000
  O  Te48      1.0  0.70092  0.24823  0.72335  1.0000
  Mg  Mg23      1.0  0.79830  0.17262  0.38014  1.0000
  Mg  Mg24      1.0  0.70588  0.17518  0.57347  1.0000
  C  Sn49      1.0  0.72537  0.28734  0.39674  1.0000
  C   C265      1.0  0.72553  0.33424  0.48079  1.0000
  C  Sn50      1.0  0.74603  0.37246  0.59311  1.0000
  C  Sn51      1.0  0.76683  0.36360  0.62194  1.0000
  C   C266      1.0  0.76667  0.31672  0.53791  1.0000
  C  Sn52      1.0  0.74616  0.27848  0.42558  1.0000
  O  Te49      1.0  0.70467  0.24967  0.28499  1.0000
  O  Te50      1.0  0.74576  0.41904  0.67570  1.0000
  O  Te51      1.0  0.78754  0.40132  0.73380  1.0000
  O  Te52      1.0  0.74644  0.23192  0.34299  1.0000
  Mg  Mg25      1.0  0.77836  0.45843  0.81602  1.0000
  Mg  Mg26      1.0  0.71385  0.19249  0.20257  1.0000
  C  Sn53      1.0  0.22137  0.84992  0.37132  1.0000
  C   C267      1.0  0.21698  0.81805  0.34696  1.0000
  C  Sn54      1.0  0.19866  0.77506  0.22549  1.0000
  C  Sn55      1.0  0.18446  0.76366  0.12619  1.0000
  C   C268      1.0  0.18885  0.79552  0.15054  1.0000
  C  Sn56      1.0  0.20716  0.83853  0.27201  1.0000
  O  Te53      1.0  0.23977  0.89270  0.49347  1.0000
  O  Te54      1.0  0.19460  0.74377  0.20350  1.0000
  O  Te55      1.0  0.16604  0.72085  0.00398  1.0000
  O  Te56      1.0  0.21123  0.86979  0.29400  1.0000
  Mg  Mg27      1.0  0.16746  0.68986  0.02106  1.0000
  Mg  Mg28      1.0  0.23838  0.92369  0.47631  1.0000
  C  Sn57      1.0  0.22851  0.12972  0.26749  1.0000
  C   C269      1.0  0.22295  0.17089  0.32838  1.0000
  C  Sn58      1.0  0.20394  0.22290  0.49532  1.0000
  C  Sn59      1.0  0.19021  0.23400  0.60375  1.0000
  C   C270      1.0  0.19577  0.19285  0.54288  1.0000
  C  Sn60      1.0  0.21478  0.14083  0.37593  1.0000
  O  Te57      1.0  0.24760  0.07803  0.10016  1.0000
  O  Te58      1.0  0.19871  0.26339  0.55327  1.0000
  O  Te59      1.0  0.17111  0.28575  0.77120  1.0000
  O  Te60      1.0  0.22001  0.10036  0.31799  1.0000
  Mg  Mg29      1.0  0.17099  0.32739  0.79138  1.0000
  Mg  Mg30      1.0  0.24774  0.03636  0.07997  1.0000
  C  Sn61      1.0  0.72315  0.79636  0.52611  1.0000
  C   C271      1.0  0.72950  0.74207  0.40512  1.0000
  C  Sn62      1.0  0.74979  0.69758  0.24037  1.0000
  C  Sn63      1.0  0.76403  0.70756  0.19567  1.0000
  C   C272      1.0  0.75767  0.76183  0.31663  1.0000
  C  Sn64      1.0  0.73739  0.80635  0.48140  1.0000
  O  Te61      1.0  0.70279  0.84021  0.69005  1.0000
  O  Te62      1.0  0.75578  0.64366  0.12158  1.0000
  O  Te63      1.0  0.78440  0.66365  0.03156  1.0000
  O  Te64      1.0  0.73140  0.86024  0.60017  1.0000
  Mg  Mg31      1.0  0.76037  0.88225  0.91463  1.0000
  Mg  Mg32      1.0  0.70200  0.90628  0.80720  1.0000
  C  Sn65      1.0  0.82917  0.22924  0.46193  1.0000
  C   C273      1.0  0.79992  0.22886  0.45727  1.0000
  C  Sn66      1.0  0.78469  0.19662  0.41735  1.0000
  C  Sn67      1.0  0.79898  0.16409  0.38146  1.0000
  C   C274      1.0  0.82821  0.16449  0.38616  1.0000
  C  Sn68      1.0  0.84346  0.19672  0.42604  1.0000
  O  Te65      1.0  0.84397  0.26179  0.50215  1.0000
  O  Te66      1.0  0.75547  0.19690  0.41342  1.0000
  O  Te67      1.0  0.78415  0.13153  0.34122  1.0000
  O  Te68      1.0  0.87266  0.19645  0.43001  1.0000
  Mg  Mg33      1.0  0.74459  0.14574  0.35209  1.0000
  Mg  Mg34      1.0  0.88356  0.24762  0.49141  1.0000
  C  Sn69      1.0  0.80532  0.84277  0.27037  1.0000
  C   C275      1.0  0.83386  0.82011  0.18325  1.0000
  C  Sn70      1.0  0.84537  0.76458  0.04786  1.0000
  C  Sn71      1.0  0.80318  0.01556  0.99842  1.0000
  C   C276      1.0  0.79949  0.75363  0.08549  1.0000
  C  Sn72      1.0  0.78795  0.80917  0.22093  1.0000
  O  Te69      1.0  0.79426  0.89839  0.40533  1.0000
  O  Te70      1.0  0.84914  0.02746  0.96274  1.0000
  O  Te71      1.0  0.81427  0.95991  0.86334  1.0000
  O  Te72      1.0  0.75939  0.83088  0.30599  1.0000
  Mg  Mg35      1.0  0.85441  0.94936  0.78689  1.0000
  Mg  Mg36      1.0  0.75409  0.90895  0.48178  1.0000
  C  Sn73      1.0  0.17219  0.91571  0.23697  1.0000
  C   C277      1.0  0.16059  0.88490  0.20980  1.0000
  C  Sn74      1.0  0.13826  0.85253  0.10589  1.0000
  C  Sn75      1.0  0.12730  0.85089  0.02739  1.0000
  C   C278      1.0  0.13890  0.88168  0.05454  1.0000
  C  Sn76      1.0  0.16123  0.91407  0.15846  1.0000
  O  Te73      1.0  0.19451  0.94777  0.34133  1.0000
  O  Te74      1.0  0.12701  0.82210  0.08070  1.0000
  O  Te75      1.0  0.08015  0.10338  0.92297  1.0000
  O  Te76      1.0  0.17248  0.94447  0.18364  1.0000
  Mg  Mg37      1.0  0.07194  0.06921  0.92752  1.0000
  Mg  Mg38      1.0  0.20273  0.98194  0.33670  1.0000
  C  Sn77      1.0  0.14480  0.16859  0.22794  1.0000
  C   C279      1.0  0.17115  0.14375  0.11871  1.0000
  C  Sn78      1.0  0.18805  0.09786  0.02026  1.0000
  C  Sn79      1.0  0.17840  0.07631  0.03110  1.0000
  C   C280      1.0  0.15206  0.10113  0.14024  1.0000
  C  Sn80      1.0  0.13515  0.14704  0.23878  1.0000
  O  Te77      1.0  0.12825  0.21443  0.32517  1.0000
  O  Te78      1.0  0.18949  0.35834  0.91204  1.0000
  O  Te79      1.0  0.17015  0.31502  0.93375  1.0000
  O  Te80      1.0  0.10890  0.17114  0.34691  1.0000
  Mg  Mg39      1.0  0.20434  0.29658  0.80514  1.0000
  Mg  Mg40      1.0  0.09403  0.23287  0.45379  1.0000
  C  Sn81      1.0  0.21137  0.09956  0.59514  1.0000
  C   C281      1.0  0.18495  0.12320  0.70164  1.0000
  C  Sn82      1.0  0.16243  0.14593  0.72460  1.0000
  C  Sn83      1.0  0.16638  0.14497  0.63923  1.0000
  C   C282      1.0  0.19278  0.12133  0.53278  1.0000
  C  Sn84      1.0  0.21532  0.09860  0.50977  1.0000
  O  Te81      1.0  0.23358  0.07707  0.57406  1.0000
  O  Te82      1.0  0.13622  0.16936  0.83177  1.0000
  O  Te83      1.0  0.14414  0.16748  0.66041  1.0000
  O  Te84      1.0  0.24151  0.07517  0.40265  1.0000
  Mg  Mg41      1.0  0.11243  0.19470  0.81946  1.0000
  Mg  Mg42      1.0  0.26531  0.04979  0.41479  1.0000
  C  Sn85      1.0  0.74410  0.65305  0.84112  1.0000
  C   C283      1.0  0.72128  0.67980  0.96948  1.0000
  C  Sn86      1.0  0.72576  0.43897  0.06983  1.0000
  C  Sn87      1.0  0.72826  0.45633  0.04120  1.0000
  C   C284      1.0  0.72624  0.71418  0.91288  1.0000
  C  Sn88      1.0  0.74659  0.67042  0.81249  1.0000
  O  Te85      1.0  0.76418  0.60940  0.74234  1.0000
  O  Te86      1.0  0.70315  0.46508  0.19745  1.0000
  O  Te87      1.0  0.70815  0.50002  0.14012  1.0000
  O  Te88      1.0  0.76919  0.64431  0.68492  1.0000
  Mg  Mg43      1.0  0.68118  0.52250  0.29841  1.0000
  Mg  Mg44      1.0  0.79116  0.58686  0.58382  1.0000
  C  Sn89      1.0  0.30257  0.14035  0.56604  1.0000
  C   C285      1.0  0.26376  0.17247  0.59774  1.0000
  C  Sn90      1.0  0.23986  0.21559  0.73700  1.0000
  C  Sn91      1.0  0.25450  0.22687  0.84696  1.0000
  C   C286      1.0  0.26598  0.19476  0.81526  1.0000
  C  Sn92      1.0  0.28988  0.15162  0.67600  1.0000
  O  Te89      1.0  0.32647  0.09745  0.42607  1.0000
  O  Te90      1.0  0.22876  0.24712  0.76605  1.0000
  O  Te91      1.0  0.23058  0.26980  0.98701  1.0000
  O  Te92      1.0  0.30098  0.12011  0.64695  1.0000
  Mg  Mg45      1.0  0.19596  0.30112  0.97345  1.0000
  Mg  Mg46      1.0  0.33379  0.06612  0.43968  1.0000
  C  Sn93      1.0  0.33125  0.77390  0.20077  1.0000
  C   C287      1.0  0.32677  0.72934  0.12483  1.0000
  C  Sn94      1.0  0.28271  0.97466  0.99803  1.0000
  C  Sn95      1.0  0.26764  0.98002  0.94594  1.0000
  C   C288      1.0  0.29695  0.73996  0.02183  1.0000
  C  Sn96      1.0  0.31618  0.77926  0.14868  1.0000
  O  Te93      1.0  0.35059  0.81266  0.32728  1.0000
  O  Te94      1.0  0.27858  0.93048  0.92403  1.0000
  O  Te95      1.0  0.24828  0.94121  0.81933  1.0000
  O  Te96      1.0  0.32032  0.82341  0.22263  1.0000
  Mg  Mg47      1.0  0.24999  0.88832  0.75674  1.0000
  Mg  Mg48      1.0  0.34891  0.86557  0.38985  1.0000
  C  Sn97      1.0  0.67506  0.46972  0.88466  1.0000
  C   C289      1.0  0.66054  0.44225  0.86556  1.0000
  C  Sn98      1.0  0.63801  0.41171  0.76223  1.0000
  C  Sn99      1.0  0.62984  0.40852  0.67607  1.0000
  C   C290      1.0  0.64436  0.43597  0.69516  1.0000
  C  Sn100     1.0  0.66689  0.46653  0.79850  1.0000
  O  Te97      1.0  0.69752  0.50001  0.98859  1.0000
  O  Te98      1.0  0.62381  0.38463  0.74517  1.0000
  O  Te99      1.0  0.60736  0.37820  0.57208  1.0000
  O  Te100     1.0  0.68109  0.49359  0.81555  1.0000
  Mg  Mg49      1.0  0.59459  0.34852  0.58921  1.0000
  Mg  Mg50      1.0  0.71032  0.52968  0.97139  1.0000
  C  Sn101     1.0  0.63052  0.70661  0.84132  1.0000
  C   C291      1.0  0.64303  0.67103  0.79518  1.0000
  C  Sn102     1.0  0.67189  0.64737  0.71607  1.0000
  C  Sn103     1.0  0.68860  0.65955  0.68249  1.0000
  C   C292      1.0  0.67609  0.69511  0.72865  1.0000
  C  Sn104     1.0  0.64722  0.71879  0.80774  1.0000
  O  Te101     1.0  0.60163  0.72980  0.92028  1.0000
  O  Te102     1.0  0.68393  0.61191  0.67106  1.0000
  O  Te103     1.0  0.71751  0.63632  0.60346  1.0000
  O  Te104     1.0  0.63519  0.75424  0.85277  1.0000
  Mg  Mg51      1.0  0.72417  0.59054  0.56631  1.0000
  Mg  Mg52      1.0  0.59495  0.77565  0.95761  1.0000
  C  Sn105     1.0  0.17810  0.78767  0.71860  1.0000
  C   C293      1.0  0.18370  0.81665  0.73280  1.0000
  C  Sn106     1.0  0.21029  0.83508  0.76782  1.0000
  C  Sn107     1.0  0.23174  0.82430  0.78897  1.0000
  C   C294      1.0  0.22614  0.79533  0.77474  1.0000
  C  Sn108     1.0  0.19955  0.77689  0.73976  1.0000
  O  Te105     1.0  0.15136  0.76962  0.68352  1.0000
  O  Te106     1.0  0.21538  0.86399  0.78149  1.0000
  O  Te107     1.0  0.25849  0.84238  0.82409  1.0000
  O  Te108     1.0  0.19445  0.74799  0.72605  1.0000
  Mg  Mg53      1.0  0.25518  0.88006  0.83064  1.0000
  Mg  Mg54      1.0  0.15467  0.73188  0.67681  1.0000
  C  Sn109     1.0  0.25531  0.12190  0.74313  1.0000
  C   C295      1.0  0.24998  0.16399  0.80765  1.0000
  C  Sn110     1.0  0.23252  0.21769  0.98165  1.0000
  C  Sn111     1.0  0.24497  0.94499  0.09358  1.0000
  C   C296      1.0  0.25030  0.90291  0.02908  1.0000
  C  Sn112     1.0  0.24293  0.13379  0.85506  1.0000
  O  Te109     1.0  0.27282  0.06852  0.56874  1.0000
  O  Te110     1.0  0.25232  0.97449  0.04314  1.0000
  O  Te111     1.0  0.22744  0.99842  0.26809  1.0000
  O  Te112     1.0  0.24796  0.09242  0.79359  1.0000
  Mg  Mg55      1.0  0.22698  0.04076  0.29082  1.0000
  Mg  Mg56      1.0  0.27331  0.02615  0.54599  1.0000
  C  Sn113     1.0  0.72524  0.79218  0.01706  1.0000
  C   C297      1.0  0.70675  0.02200  0.89354  1.0000
  C  Sn114     1.0  0.72669  0.97752  0.72744  1.0000
  C  Sn115     1.0  0.74059  0.98801  0.68392  1.0000
  C   C298      1.0  0.73426  0.04275  0.80741  1.0000
  C  Sn116     1.0  0.71433  0.08726  0.97355  1.0000
  O  Te113     1.0  0.70524  0.83601  0.18233  1.0000
  O  Te114     1.0  0.73266  0.92312  0.60612  1.0000
  O  Te115     1.0  0.76060  0.94412  0.51850  1.0000
  O  Te116     1.0  0.73318  0.85704  0.09484  1.0000
  Mg  Mg57      1.0  0.76152  0.87737  0.39816  1.0000
  Mg  Mg58      1.0  0.70434  0.90284  0.30287  1.0000
  C  Sn117     1.0  0.82324  0.14812  0.80745  1.0000
  C   C299      1.0  0.85230  0.15127  0.81946  1.0000
  C  Sn118     1.0  0.86372  0.20188  0.94101  1.0000
  C  Sn119     1.0  0.87055  0.96578  0.05299  1.0000
  C   C300      1.0  0.84151  0.96262  0.04098  1.0000
  C  Sn120     1.0  0.80525  0.19661  0.91943  1.0000
  O  Te117     1.0  0.81228  0.09709  0.68498  1.0000
  O  Te118     1.0  0.89284  0.20398  0.95053  1.0000
  O  Te119     1.0  0.88154  0.01683  0.17552  1.0000
  O  Te120     1.0  0.77615  0.19449  0.90991  1.0000
  Mg  Mg59      1.0  0.92255  0.99858  0.13874  1.0000
  Mg  Mg60      1.0  0.77124  0.11535  0.72184  1.0000
  C  Sn121     1.0  0.79103  0.80663  0.67048  1.0000
  C   C301      1.0  0.79667  0.76206  0.59543  1.0000
  C  Sn122     1.0  0.82479  0.73957  0.54252  1.0000
  C  Sn123     1.0  0.84774  0.76214  0.56521  1.0000
  C   C302      1.0  0.84209  0.80669  0.64026  1.0000
  C  Sn124     1.0  0.81398  0.82920  0.69318  1.0000
  O  Te121     1.0  0.76276  0.82845  0.72243  1.0000
  O  Te122     1.0  0.82990  0.69500  0.46774  1.0000
  O  Te123     1.0  0.87602  0.74028  0.51319  1.0000
  O  Te124     1.0  0.80886  0.87375  0.76794  1.0000
  Mg  Mg61      1.0  0.87209  0.67963  0.41796  1.0000
  Mg  Mg62      1.0  0.76668  0.88917  0.81786  1.0000
  C  Sn125     1.0  0.17388  0.89406  0.61246  1.0000
  C   C303      1.0  0.14755  0.88397  0.55969  1.0000
  C  Sn126     1.0  0.12633  0.86858  0.56948  1.0000
  C  Sn127     1.0  0.13152  0.86318  0.63345  1.0000
  C   C304      1.0  0.15783  0.87327  0.68620  1.0000
  C  Sn128     1.0  0.17908  0.88866  0.67643  1.0000
  O  Te125     1.0  0.19479  0.90940  0.60155  1.0000
  O  Te126     1.0  0.10018  0.85870  0.51590  1.0000
  O  Te127     1.0  0.11058  0.84782  0.64432  1.0000
  O  Te128     1.0  0.20521  0.89855  0.72999  1.0000
  Mg  Mg63      1.0  0.07842  0.83883  0.55577  1.0000
  Mg  Mg64      1.0  0.22698  0.91845  0.69027  1.0000
