data_image0
_chemical_formula_structural       H160C240N16O24SnCSn2CSnTe4Mg2SnCSn2CSnTe4Mg2SnCSn2CSnTe4Mg2SnCSn2CSnTe4Mg2SnCSn2CSnTe4Mg2SnCSn2CSnTe4Mg2SnCSn2CSnTe4Mg2SnCSn2CSnTe4Mg2SnCSn2CSnTe4Mg2SnCSn2CSnTe4Mg2SnCSn2CSnTe4Mg2SnCSn2CSnTe4Mg2SnCSn2CSnTe4Mg2SnCSn2CSnTe4Mg2SnCSn2CSnTe4Mg2SnCSn2CSnTe4Mg2SnCSn2CSnTe4Mg2SnCSn2CSnTe4Mg2SnCSn2CSnTe4Mg2SnCSn2CSnTe4Mg2SnCSn2CSnTe4Mg2SnCSn2CSnTe4Mg2SnCSn2CSnTe4Mg2SnCSn2CSnTe4Mg2
_chemical_formula_sum              "H160 C288 N16 O24 Sn96 Te96 Mg48"
_cell_length_a       54.1166
_cell_length_b       40.865
_cell_length_c       15.582
_cell_angle_alpha    137.68
_cell_angle_beta     90.6145
_cell_angle_gamma    89.9653

_symmetry_space_group_name_H-M    'P1'
_space_group_IT_number       1

loop_
  _space_group_symop_operation_xyz
  'x, y, z'

loop_
  _atom_site_type_symbol
  _atom_site_label
  _atom_site_symmetry_multiplicity
  _atom_site_fract_x
  _atom_site_fract_y
  _atom_site_fract_z
  _atom_site_occupancy
  H   H1        1.0  0.98077  0.85410  0.41795  1.0000
  H   H2        1.0  0.00758  0.88392  0.43555  1.0000
  H   H3        1.0  0.96950  0.91255  0.94727  1.0000
  H   H4        1.0  0.98024  0.95336  0.10794  1.0000
  H   H5        1.0  0.42889  0.39677  0.04309  1.0000
  H   H6        1.0  0.43446  0.40957  0.17873  1.0000
  H   H7        1.0  0.47539  0.38428  0.00341  1.0000
  H   H8        1.0  0.45986  0.34065  0.98374  1.0000
  H   H9        1.0  0.46375  0.63414  0.23135  1.0000
  H   H10       1.0  0.45828  0.58290  0.19839  1.0000
  H   H11       1.0  0.47770  0.57756  0.00377  1.0000
  H   H12       1.0  0.44573  0.57334  0.02121  1.0000
  H   H13       1.0  0.98995  0.05105  0.47310  1.0000
  H   H14       1.0  0.96825  0.09272  0.11033  1.0000
  H   H15       1.0  0.94659  0.03584  0.39568  1.0000
  H   H16       1.0  0.93744  0.02473  0.48188  1.0000
  H   H17       1.0  0.11268  0.05656  0.16685  1.0000
  H   H18       1.0  0.54627  0.36324  0.20454  1.0000
  H   H19       1.0  0.57955  0.34161  0.26592  1.0000
  H   H20       1.0  0.61611  0.36495  0.39647  1.0000
  H   H21       1.0  0.64914  0.51551  0.14482  1.0000
  H   H22       1.0  0.61500  0.53353  0.08101  1.0000
  H   H23       1.0  0.56304  0.64693  0.10502  1.0000
  H   H24       1.0  0.53349  0.61284  0.14569  1.0000
  H   H25       1.0  0.60203  0.64024  0.01189  1.0000
  H   H26       1.0  0.64575  0.51307  0.30560  1.0000
  H   H27       1.0  0.61496  0.47762  0.33271  1.0000
  H   H28       1.0  0.43882  0.50628  0.14488  1.0000
  H   H29       1.0  0.40872  0.57399  0.26265  1.0000
  H   H30       1.0  0.37768  0.62520  0.42602  1.0000
  H   H31       1.0  0.36005  0.61128  0.16923  1.0000
  H   H32       1.0  0.39072  0.54627  0.05812  1.0000
  H   H33       1.0  0.45015  0.39794  0.40752  1.0000
  H   H34       1.0  0.47892  0.45647  0.45132  1.0000
  H   H35       1.0  0.40818  0.37023  0.37934  1.0000
  H   H36       1.0  0.34825  0.41985  0.31558  1.0000
  H   H37       1.0  0.37706  0.47009  0.33053  1.0000
  H   H38       1.0  0.49372  0.52896  0.11801  1.0000
  H   H39       1.0  0.49599  0.57812  0.28767  1.0000
  H   H40       1.0  0.53585  0.54317  0.21975  1.0000
  H   H41       1.0  0.53916  0.59589  0.25680  1.0000
  H   H42       1.0  0.50593  0.42764  0.13872  1.0000
  H   H43       1.0  0.51788  0.37361  0.08135  1.0000
  H   H44       1.0  0.51510  0.41482  0.30756  1.0000
  H   H45       1.0  0.50533  0.46879  0.35888  1.0000
  H   H46       1.0  0.27295  0.75127  0.25090  1.0000
  H   H47       1.0  0.29259  0.27540  0.31217  1.0000
  H   H48       1.0  0.71587  0.63093  0.28450  1.0000
  H   H49       1.0  0.72924  0.40293  0.18397  1.0000
  H   H50       1.0  0.22119  0.91771  0.25326  1.0000
  H   H51       1.0  0.24129  0.18065  0.02575  1.0000
  H   H52       1.0  0.77662  0.21979  0.12504  1.0000
  H   H53       1.0  0.76992  0.76395  0.19530  1.0000
  H   H54       1.0  0.04447  0.88792  0.26318  1.0000
  H   H55       1.0  0.07400  0.86876  0.34203  1.0000
  H   H56       1.0  0.10935  0.89085  0.47424  1.0000
  H   H57       1.0  0.14486  0.03130  0.21970  1.0000
  H   H58       1.0  0.00445  0.97558  0.34186  1.0000
  H   H59       1.0  0.01565  0.92524  0.30150  1.0000
  H   H60       1.0  0.03485  0.89480  0.10103  1.0000
  H   H61       1.0  0.01886  0.94245  0.14072  1.0000
  H   H62       1.0  0.91593  0.04330  0.16067  1.0000
  H   H63       1.0  0.88223  0.09142  0.31090  1.0000
  H   H64       1.0  0.85459  0.06301  0.50921  1.0000
  H   H65       1.0  0.88342  0.99510  0.39440  1.0000
  H   H66       1.0  0.07659  0.17179  0.15361  1.0000
  H   H67       1.0  0.04141  0.14831  0.19757  1.0000
  H   H68       1.0  0.11841  0.15628  0.07010  1.0000
  H   H69       1.0  0.15623  0.02336  0.39227  1.0000
  H   H70       1.0  0.11919  0.99455  0.40904  1.0000
  H   H71       1.0  0.02395  0.12685  0.30229  1.0000
  H   H72       1.0  0.01157  0.11330  0.17261  1.0000
  H   H73       1.0  0.93688  0.85214  0.27494  1.0000
  H   H74       1.0  0.96855  0.90770  0.31794  1.0000
  H   H75       1.0  0.89355  0.82623  0.23458  1.0000
  H   H76       1.0  0.84151  0.86641  0.11456  1.0000
  H   H77       1.0  0.87323  0.91706  0.14332  1.0000
  H   H78       1.0  0.98313  0.09727  0.26646  1.0000
  H   H79       1.0  0.00286  0.04902  0.20581  1.0000
  H   H80       1.0  0.94534  0.97580  0.04406  1.0000
  H   H81       1.0  0.97608  0.84404  0.92847  1.0000
  H   H82       1.0  0.00276  0.86951  0.92840  1.0000
  H   H83       1.0  0.97620  0.93553  0.48701  1.0000
  H   H84       1.0  0.98415  0.96452  0.64239  1.0000
  H   H85       1.0  0.42854  0.39715  0.54364  1.0000
  H   H86       1.0  0.43467  0.40927  0.67783  1.0000
  H   H87       1.0  0.47435  0.38153  0.49405  1.0000
  H   H88       1.0  0.45910  0.34073  0.48595  1.0000
  H   H89       1.0  0.46358  0.63469  0.73904  1.0000
  H   H90       1.0  0.45782  0.58251  0.70179  1.0000
  H   H91       1.0  0.47850  0.57902  0.51246  1.0000
  H   H92       1.0  0.44631  0.57508  0.52741  1.0000
  H   H93       1.0  0.98964  0.05623  0.98266  1.0000
  H   H94       1.0  0.96856  0.09149  0.59944  1.0000
  H   H95       1.0  0.94560  0.04057  0.90856  1.0000
  H   H96       1.0  0.93845  0.02378  0.98338  1.0000
  H   H97       1.0  0.11235  0.05550  0.66203  1.0000
  H   H98       1.0  0.55125  0.35767  0.68657  1.0000
  H   H99       1.0  0.58555  0.34107  0.75673  1.0000
  H   H100      1.0  0.62159  0.36941  0.89411  1.0000
  H   H101      1.0  0.64984  0.50580  0.63427  1.0000
  H   H102      1.0  0.61643  0.52927  0.58204  1.0000
  H   H103      1.0  0.56639  0.65436  0.64729  1.0000
  H   H104      1.0  0.53609  0.62030  0.68483  1.0000
  H   H105      1.0  0.60425  0.64533  0.54444  1.0000
  H   H106      1.0  0.64791  0.51484  0.80554  1.0000
  H   H107      1.0  0.61706  0.47800  0.82761  1.0000
  H   H108      1.0  0.43821  0.50680  0.64581  1.0000
  H   H109      1.0  0.40785  0.57413  0.76382  1.0000
  H   H110      1.0  0.37639  0.62448  0.92629  1.0000
  H   H111      1.0  0.36192  0.61508  0.67595  1.0000
  H   H112      1.0  0.39222  0.54944  0.56443  1.0000
  H   H113      1.0  0.45066  0.39773  0.90641  1.0000
  H   H114      1.0  0.47901  0.45605  0.94819  1.0000
  H   H115      1.0  0.40896  0.36884  0.87656  1.0000
  H   H116      1.0  0.34854  0.41625  0.80884  1.0000
  H   H117      1.0  0.37686  0.46713  0.82437  1.0000
  H   H118      1.0  0.49327  0.53024  0.63196  1.0000
  H   H119      1.0  0.49423  0.58081  0.80151  1.0000
  H   H120      1.0  0.53432  0.54527  0.73903  1.0000
  H   H121      1.0  0.53808  0.59882  0.78013  1.0000
  H   H122      1.0  0.49478  0.45636  0.72437  1.0000
  H   H123      1.0  0.51354  0.40578  0.59761  1.0000
  H   H124      1.0  0.51822  0.39378  0.74184  1.0000
  H   H125      1.0  0.51109  0.45690  0.87024  1.0000
  H   H126      1.0  0.27449  0.75288  0.75173  1.0000
  H   H127      1.0  0.29447  0.27124  0.80727  1.0000
  H   H128      1.0  0.71624  0.63114  0.77345  1.0000
  H   H129      1.0  0.72590  0.39450  0.67944  1.0000
  H   H130      1.0  0.21960  0.91991  0.75996  1.0000
  H   H131      1.0  0.24056  0.17953  0.51958  1.0000
  H   H132      1.0  0.77683  0.22027  0.64117  1.0000
  H   H133      1.0  0.77118  0.76896  0.69290  1.0000
  H   H134      1.0  0.04615  0.88885  0.75646  1.0000
  H   H135      1.0  0.07700  0.86696  0.82432  1.0000
  H   H136      1.0  0.11233  0.88836  0.95742  1.0000
  H   H137      1.0  0.14359  0.03186  0.72284  1.0000
  H   H138      1.0  0.00526  0.97470  0.82785  1.0000
  H   H139      1.0  0.01622  0.92600  0.79581  1.0000
  H   H140      1.0  0.03969  0.89568  0.60510  1.0000
  H   H141      1.0  0.02581  0.94315  0.63739  1.0000
  H   H142      1.0  0.91708  0.04872  0.66261  1.0000
  H   H143      1.0  0.88194  0.09245  0.80416  1.0000
  H   H144      1.0  0.85338  0.05697  0.98452  1.0000
  H   H145      1.0  0.88332  0.99094  0.87118  1.0000
  H   H146      1.0  0.07681  0.16845  0.64205  1.0000
  H   H147      1.0  0.04108  0.14554  0.68460  1.0000
  H   H148      1.0  0.11850  0.15216  0.55846  1.0000
  H   H149      1.0  0.15653  0.02734  0.90090  1.0000
  H   H150      1.0  0.11961  0.99758  0.91516  1.0000
  H   H151      1.0  0.02430  0.12786  0.79427  1.0000
  H   H152      1.0  0.01087  0.11223  0.66295  1.0000
  H   H153      1.0  0.93872  0.85318  0.76371  1.0000
  H   H154      1.0  0.96987  0.91208  0.81605  1.0000
  H   H155      1.0  0.89545  0.82695  0.72201  1.0000
  H   H156      1.0  0.84396  0.86398  0.59228  1.0000
  H   H157      1.0  0.87575  0.91409  0.61931  1.0000
  H   H158      1.0  0.98309  0.10187  0.76987  1.0000
  H   H159      1.0  0.00222  0.05387  0.71465  1.0000
  H   H160      1.0  0.94864  0.98544  0.55416  1.0000
  C   C1        1.0  0.59727  0.41250  0.39991  1.0000
  C   C2        1.0  0.59678  0.46015  0.45454  1.0000
  C   C3        1.0  0.57696  0.47281  0.42232  1.0000
  C   C4        1.0  0.55915  0.43764  0.33337  1.0000
  C   C5        1.0  0.56010  0.39011  0.27613  1.0000
  C   C6        1.0  0.57869  0.37804  0.30963  1.0000
  C   C7        1.0  0.61611  0.40098  0.43756  1.0000
  C   C8        1.0  0.63728  0.44120  0.02632  1.0000
  C   C9        1.0  0.63560  0.48724  0.07468  1.0000
  C   C10       1.0  0.61638  0.49744  0.03884  1.0000
  C   C11       1.0  0.57455  0.52264  0.48327  1.0000
  C   C12       1.0  0.59189  0.54164  0.46022  1.0000
  C   C13       1.0  0.58909  0.59007  0.52110  1.0000
  C   C14       1.0  0.56637  0.61175  0.06646  1.0000
  C   C15       1.0  0.55006  0.59333  0.09022  1.0000
  C   C16       1.0  0.55446  0.54753  0.03993  1.0000
  C   C17       1.0  0.60654  0.60862  0.49797  1.0000
  C   C18       1.0  0.62688  0.58166  0.42182  1.0000
  C   C19       1.0  0.62995  0.53447  0.36581  1.0000
  C   C20       1.0  0.61267  0.51451  0.38098  1.0000
  C   C21       1.0  0.39824  0.57123  0.39112  1.0000
  C   C22       1.0  0.40238  0.54802  0.42753  1.0000
  C   C23       1.0  0.41991  0.50940  0.35942  1.0000
  C   C24       1.0  0.43229  0.49495  0.25730  1.0000
  C   C25       1.0  0.42844  0.51884  0.22409  1.0000
  C   C26       1.0  0.41180  0.55596  0.28906  1.0000
  C   C27       1.0  0.38093  0.60914  0.45778  1.0000
  C   C28       1.0  0.36582  0.62260  0.05497  1.0000
  C   C29       1.0  0.37020  0.59931  0.09006  1.0000
  C   C30       1.0  0.38751  0.56298  0.02815  1.0000
  C   C31       1.0  0.42642  0.48531  0.39519  1.0000
  C   C32       1.0  0.40934  0.45353  0.37648  1.0000
  C   C33       1.0  0.41796  0.42288  0.38546  1.0000
  C   C34       1.0  0.44350  0.42284  0.40672  1.0000
  C   C35       1.0  0.45943  0.45515  0.43119  1.0000
  C   C36       1.0  0.45089  0.48757  0.42974  1.0000
  C   C37       1.0  0.40100  0.39348  0.37367  1.0000
  C   C38       1.0  0.37584  0.39315  0.35425  1.0000
  C   C39       1.0  0.36773  0.42049  0.33480  1.0000
  C   C40       1.0  0.38392  0.44915  0.34413  1.0000
  C   C41       1.0  0.50223  0.56489  0.19900  1.0000
  C   C42       1.0  0.53010  0.56009  0.19164  1.0000
  C   C43       1.0  0.50608  0.40536  0.15423  1.0000
  C   C44       1.0  0.51613  0.43553  0.28763  1.0000
  C   C45       1.0  0.29110  0.76562  0.26162  1.0000
  C   C46       1.0  0.29092  0.80895  0.30179  1.0000
  C   C47       1.0  0.31339  0.83293  0.32482  1.0000
  C   C48       1.0  0.31074  0.28089  0.35258  1.0000
  C   C49       1.0  0.31433  0.25751  0.38417  1.0000
  C   C50       1.0  0.33736  0.26073  0.43561  1.0000
  C   C51       1.0  0.69721  0.63807  0.27486  1.0000
  C   C52       1.0  0.69592  0.65590  0.22716  1.0000
  C   C53       1.0  0.67311  0.66972  0.21496  1.0000
  C   C54       1.0  0.71081  0.39420  0.19039  1.0000
  C   C55       1.0  0.71011  0.36943  0.21898  1.0000
  C   C56       1.0  0.68742  0.35614  0.23297  1.0000
  C   C57       1.0  0.20202  0.88459  0.28910  1.0000
  C   C58       1.0  0.20274  0.90778  0.25586  1.0000
  C   C59       1.0  0.17922  0.86973  0.29769  1.0000
  C   C60       1.0  0.23691  0.14575  0.33376  1.0000
  C   C61       1.0  0.22923  0.15467  0.43258  1.0000
  C   C62       1.0  0.22495  0.10839  0.21207  1.0000
  C   C63       1.0  0.79686  0.27630  0.17891  1.0000
  C   C64       1.0  0.79529  0.23196  0.13315  1.0000
  C   C65       1.0  0.82001  0.29704  0.19469  1.0000
  C   C66       1.0  0.78521  0.70213  0.13031  1.0000
  C   C67       1.0  0.78698  0.74345  0.16145  1.0000
  C   C68       1.0  0.80605  0.67233  0.09006  1.0000
  C   C69       1.0  0.09222  0.93907  0.47612  1.0000
  C   C70       1.0  0.09407  0.98645  0.02556  1.0000
  C   C71       1.0  0.07556  0.99736  0.48221  1.0000
  C   C72       1.0  0.05807  0.96198  0.38923  1.0000
  C   C73       1.0  0.05753  0.91555  0.33882  1.0000
  C   C74       1.0  0.07416  0.90459  0.38194  1.0000
  C   C75       1.0  0.11230  0.92534  0.00438  1.0000
  C   C76       1.0  0.13065  0.95790  0.09354  1.0000
  C   C77       1.0  0.13065  0.00539  0.14951  1.0000
  C   C78       1.0  0.11261  0.01962  0.11977  1.0000
  C   C79       1.0  0.01897  0.94826  0.28991  1.0000
  C   C80       1.0  0.01841  0.91802  0.14936  1.0000
  C   C81       1.0  0.89913  0.03155  0.26173  1.0000
  C   C82       1.0  0.89941  0.00264  0.28252  1.0000
  C   C83       1.0  0.91645  0.96368  0.21479  1.0000
  C   C84       1.0  0.93250  0.95431  0.12879  1.0000
  C   C85       1.0  0.93252  0.98335  0.11006  1.0000
  C   C86       1.0  0.91606  0.02098  0.17509  1.0000
  C   C87       1.0  0.88248  0.07061  0.33001  1.0000
  C   C88       1.0  0.86623  0.08208  0.41740  1.0000
  C   C89       1.0  0.86683  0.05368  0.43877  1.0000
  C   C90       1.0  0.88305  0.01573  0.37488  1.0000
  C   C91       1.0  0.07682  0.04718  0.03514  1.0000
  C   C92       1.0  0.09768  0.06169  0.01344  1.0000
  C   C93       1.0  0.09772  0.10725  0.05650  1.0000
  C   C94       1.0  0.07676  0.13730  0.12098  1.0000
  C   C95       1.0  0.05694  0.12389  0.14505  1.0000
  C   C96       1.0  0.05684  0.07889  0.10228  1.0000
  C   C97       1.0  0.11883  0.12178  0.03741  1.0000
  C   C98       1.0  0.14003  0.09003  0.47393  1.0000
  C   C99       1.0  0.13979  0.04570  0.43499  1.0000
  C   C100      1.0  0.11894  0.02958  0.44506  1.0000
  C   C101      1.0  0.99630  0.06985  0.19050  1.0000
  C   C102      1.0  0.01773  0.09700  0.20183  1.0000
  C   C103      1.0  0.92001  0.93520  0.23954  1.0000
  C   C104      1.0  0.90178  0.90283  0.21099  1.0000
  C   C105      1.0  0.90767  0.87429  0.23030  1.0000
  C   C106      1.0  0.93220  0.87530  0.26559  1.0000
  C   C107      1.0  0.94965  0.90612  0.29084  1.0000
  C   C108      1.0  0.94304  0.93818  0.28611  1.0000
  C   C109      1.0  0.88896  0.84574  0.21367  1.0000
  C   C110      1.0  0.86500  0.84391  0.17724  1.0000
  C   C111      1.0  0.85981  0.86978  0.15016  1.0000
  C   C112      1.0  0.87762  0.89789  0.16531  1.0000
  C   C113      1.0  0.97483  0.05520  0.02874  1.0000
  C   C114      1.0  0.95293  0.02247  0.43274  1.0000
  C   C115      1.0  0.98734  0.87731  0.98695  1.0000
  C   C116      1.0  0.97159  0.91757  0.02670  1.0000
  C   C117      1.0  0.44270  0.41043  0.11642  1.0000
  C   C118      1.0  0.46561  0.37916  0.05446  1.0000
  C   C119      1.0  0.46950  0.59653  0.17126  1.0000
  C   C120      1.0  0.46453  0.56686  0.03279  1.0000
  C   C121      1.0  0.60059  0.41423  0.89362  1.0000
  C   C122      1.0  0.59826  0.46152  0.94726  1.0000
  C   C123      1.0  0.57811  0.47085  0.90773  1.0000
  C   C124      1.0  0.56135  0.43342  0.81631  1.0000
  C   C125      1.0  0.56414  0.38641  0.76098  1.0000
  C   C126      1.0  0.58328  0.37713  0.79922  1.0000
  C   C127      1.0  0.61993  0.40547  0.93603  1.0000
  C   C128      1.0  0.63484  0.43394  0.52213  1.0000
  C   C129      1.0  0.63511  0.47985  0.56930  1.0000
  C   C130      1.0  0.61633  0.49310  0.53983  1.0000
  C   C131      1.0  0.57464  0.51946  0.96259  1.0000
  C   C132      1.0  0.59180  0.53864  0.93929  1.0000
  C   C133      1.0  0.58778  0.58558  0.99247  1.0000
  C   C134      1.0  0.56871  0.61795  0.60263  1.0000
  C   C135      1.0  0.55202  0.59942  0.62478  1.0000
  C   C136      1.0  0.55511  0.55193  0.56618  1.0000
  C   C137      1.0  0.60527  0.60461  0.97084  1.0000
  C   C138      1.0  0.62685  0.57998  0.90454  1.0000
  C   C139      1.0  0.63108  0.53450  0.85709  1.0000
  C   C140      1.0  0.61378  0.51372  0.86970  1.0000
  C   C141      1.0  0.39703  0.57003  0.88927  1.0000
  C   C142      1.0  0.40123  0.54632  0.92429  1.0000
  C   C143      1.0  0.41916  0.50832  0.85699  1.0000
  C   C144      1.0  0.43170  0.49465  0.75630  1.0000
  C   C145      1.0  0.42772  0.51883  0.72407  1.0000
  C   C146      1.0  0.41087  0.55567  0.78898  1.0000
  C   C147      1.0  0.37951  0.60767  0.95606  1.0000
  C   C148      1.0  0.36753  0.62509  0.55861  1.0000
  C   C149      1.0  0.37191  0.60246  0.59558  1.0000
  C   C150      1.0  0.38897  0.56573  0.53335  1.0000
  C   C151      1.0  0.42612  0.48428  0.89250  1.0000
  C   C152      1.0  0.40932  0.45208  0.87339  1.0000
  C   C153      1.0  0.41823  0.42174  0.88294  1.0000
  C   C154      1.0  0.44379  0.42227  0.90476  1.0000
  C   C155      1.0  0.45950  0.45454  0.92813  1.0000
  C   C156      1.0  0.45075  0.48668  0.92606  1.0000
  C   C157      1.0  0.40157  0.39183  0.87045  1.0000
  C   C158      1.0  0.37639  0.39075  0.84997  1.0000
  C   C159      1.0  0.36802  0.41765  0.82955  1.0000
  C   C160      1.0  0.38393  0.44676  0.83944  1.0000
  C   C161      1.0  0.50135  0.56666  0.71288  1.0000
  C   C162      1.0  0.52923  0.56276  0.71177  1.0000
  C   C163      1.0  0.50224  0.42159  0.67939  1.0000
  C   C164      1.0  0.51815  0.42818  0.77281  1.0000
  C   C165      1.0  0.29243  0.76615  0.75579  1.0000
  C   C166      1.0  0.29189  0.80797  0.78881  1.0000
  C   C167      1.0  0.31404  0.83032  0.80156  1.0000
  C   C168      1.0  0.31263  0.27729  0.84836  1.0000
  C   C169      1.0  0.31626  0.25491  0.88279  1.0000
  C   C170      1.0  0.33912  0.25872  0.93616  1.0000
  C   C171      1.0  0.69768  0.63941  0.76632  1.0000
  C   C172      1.0  0.69668  0.65963  0.72486  1.0000
  C   C173      1.0  0.67404  0.67576  0.71888  1.0000
  C   C174      1.0  0.70752  0.38594  0.68683  1.0000
  C   C175      1.0  0.70723  0.36262  0.71965  1.0000
  C   C176      1.0  0.68475  0.34854  0.73267  1.0000
  C   C177      1.0  0.20143  0.88417  0.78998  1.0000
  C   C178      1.0  0.20140  0.90888  0.76113  1.0000
  C   C179      1.0  0.17908  0.86770  0.79660  1.0000
  C   C180      1.0  0.23711  0.14826  0.84153  1.0000
  C   C181      1.0  0.22955  0.15701  0.94022  1.0000
  C   C182      1.0  0.22462  0.11179  0.72107  1.0000
  C   C183      1.0  0.79606  0.27729  0.69377  1.0000
  C   C184      1.0  0.79525  0.23298  0.64829  1.0000
  C   C185      1.0  0.81885  0.29878  0.70888  1.0000
  C   C186      1.0  0.78599  0.70739  0.63097  1.0000
  C   C187      1.0  0.78806  0.74797  0.65891  1.0000
  C   C188      1.0  0.80660  0.67697  0.58952  1.0000
  C   C189      1.0  0.09419  0.93822  0.96745  1.0000
  C   C190      1.0  0.09293  0.98609  0.52712  1.0000
  C   C191      1.0  0.07631  0.99899  0.98517  1.0000
  C   C192      1.0  0.05892  0.96382  0.89058  1.0000
  C   C193      1.0  0.05914  0.91620  0.83320  1.0000
  C   C194      1.0  0.07643  0.90385  0.87079  1.0000
  C   C195      1.0  0.10991  0.92714  0.51681  1.0000
  C   C196      1.0  0.12859  0.95946  0.60331  1.0000
  C   C197      1.0  0.12923  0.00600  0.65377  1.0000
  C   C198      1.0  0.11168  0.01933  0.61972  1.0000
  C   C199      1.0  0.02043  0.94898  0.78479  1.0000
  C   C200      1.0  0.02316  0.91860  0.64483  1.0000
  C   C201      1.0  0.89972  0.03280  0.75316  1.0000
  C   C202      1.0  0.90018  0.00240  0.76922  1.0000
  C   C203      1.0  0.91829  0.96517  0.70430  1.0000
  C   C204      1.0  0.93533  0.95942  0.62689  1.0000
  C   C205      1.0  0.93501  0.98989  0.61274  1.0000
  C   C206      1.0  0.91742  0.02540  0.67381  1.0000
  C   C207      1.0  0.88230  0.07056  0.81990  1.0000
  C   C208      1.0  0.86549  0.07977  0.90238  1.0000
  C   C209      1.0  0.86610  0.04971  0.91848  1.0000
  C   C210      1.0  0.88298  0.01273  0.85525  1.0000
  C   C211      1.0  0.07626  0.04470  0.52781  1.0000
  C   C212      1.0  0.09733  0.05852  0.50503  1.0000
  C   C213      1.0  0.09763  0.10375  0.54646  1.0000
  C   C214      1.0  0.07674  0.13408  0.61001  1.0000
  C   C215      1.0  0.05664  0.12111  0.63378  1.0000
  C   C216      1.0  0.05624  0.07652  0.59289  1.0000
  C   C217      1.0  0.11882  0.11779  0.52647  1.0000
  C   C218      1.0  0.14011  0.09417  0.98454  1.0000
  C   C219      1.0  0.14006  0.04956  0.94416  1.0000
  C   C220      1.0  0.11929  0.03290  0.95280  1.0000
  C   C221      1.0  0.99576  0.07283  0.69355  1.0000
  C   C222      1.0  0.01731  0.09723  0.69546  1.0000
  C   C223      1.0  0.92185  0.93556  0.72563  1.0000
  C   C224      1.0  0.90393  0.90201  0.69340  1.0000
  C   C225      1.0  0.90974  0.87400  0.71455  1.0000
  C   C226      1.0  0.93408  0.87623  0.75392  1.0000
  C   C227      1.0  0.95117  0.90842  0.78345  1.0000
  C   C228      1.0  0.94442  0.94000  0.77749  1.0000
  C   C229      1.0  0.89099  0.84554  0.69829  1.0000
  C   C230      1.0  0.86708  0.84328  0.66061  1.0000
  C   C231      1.0  0.86216  0.86786  0.62947  1.0000
  C   C232      1.0  0.88000  0.89577  0.64393  1.0000
  C   C233      1.0  0.97463  0.05329  0.52336  1.0000
  C   C234      1.0  0.95319  0.02476  0.93733  1.0000
  C   C235      1.0  0.99224  0.88716  0.48738  1.0000
  C   C236      1.0  0.97662  0.93100  0.54828  1.0000
  C   C237      1.0  0.44259  0.41047  0.61574  1.0000
  C   C238      1.0  0.46532  0.37868  0.55137  1.0000
  C   C239      1.0  0.46936  0.59698  0.67775  1.0000
  C   C240      1.0  0.46491  0.56814  0.53958  1.0000
  N   N1        1.0  0.33124  0.85423  0.34561  1.0000
  N   N2        1.0  0.35595  0.26239  0.47806  1.0000
  N   N3        1.0  0.66953  0.34380  0.24518  1.0000
  N   N4        1.0  0.65496  0.68221  0.20432  1.0000
  N   N5        1.0  0.16102  0.85656  0.30541  1.0000
  N   N6        1.0  0.21688  0.07549  0.10895  1.0000
  N   N7        1.0  0.83852  0.31564  0.20937  1.0000
  N   N8        1.0  0.82290  0.65078  0.55512  1.0000
  N   N9        1.0  0.33153  0.85044  0.81389  1.0000
  N   N10       1.0  0.35753  0.26067  0.98012  1.0000
  N   N11       1.0  0.66697  0.33559  0.74362  1.0000
  N   N12       1.0  0.65598  0.69027  0.71428  1.0000
  N   N13       1.0  0.16126  0.85308  0.80219  1.0000
  N   N14       1.0  0.21616  0.07948  0.61856  1.0000
  N   N15       1.0  0.83708  0.31781  0.72281  1.0000
  N   N16       1.0  0.82259  0.64681  0.05744  1.0000
  O   O1        1.0  0.45003  0.45932  0.18722  1.0000
  O   O2        1.0  0.49520  0.59843  0.19774  1.0000
  O   O3        1.0  0.53849  0.52838  0.06264  1.0000
  O   O4        1.0  0.46900  0.51661  0.45141  1.0000
  O   O5        1.0  0.48146  0.39072  0.14827  1.0000
  O   O6        1.0  0.54125  0.45024  0.29883  1.0000
  O   O7        1.0  0.04234  0.97373  0.34588  1.0000
  O   O8        1.0  0.94779  0.91530  0.06304  1.0000
  O   O9        1.0  0.03749  0.06385  0.12339  1.0000
  O   O10       1.0  0.96069  0.97243  0.32921  1.0000
  O   O11       1.0  0.99633  0.88877  0.09349  1.0000
  O   O12       1.0  0.98380  0.03529  0.06933  1.0000
  O   O13       1.0  0.44977  0.45956  0.68758  1.0000
  O   O14       1.0  0.49497  0.59870  0.70570  1.0000
  O   O15       1.0  0.53867  0.53210  0.58511  1.0000
  O   O16       1.0  0.46883  0.51547  0.94626  1.0000
  O   O17       1.0  0.48255  0.38859  0.63851  1.0000
  O   O18       1.0  0.54276  0.44218  0.77402  1.0000
  O   O19       1.0  0.04261  0.97743  0.85378  1.0000
  O   O20       1.0  0.95198  0.92238  0.56344  1.0000
  O   O21       1.0  0.03642  0.06244  0.61485  1.0000
  O   O22       1.0  0.96150  0.97585  0.82632  1.0000
  O   O23       1.0  0.00144  0.88854  0.57646  1.0000
  O   O24       1.0  0.98254  0.03692  0.57461  1.0000
  C  Sn1       1.0  0.33811  0.72416  0.15102  1.0000
  C   C241      1.0  0.31394  0.72703  0.18674  1.0000
  C  Sn2       1.0  0.30642  0.69875  0.20153  1.0000
  C  Sn3       1.0  0.32340  0.66695  0.18025  1.0000
  C   C242      1.0  0.34756  0.66410  0.14458  1.0000
  C  Sn4       1.0  0.35510  0.69236  0.12975  1.0000
  O  Te1       1.0  0.34524  0.75277  0.13680  1.0000
  O  Te2       1.0  0.28215  0.70224  0.23725  1.0000
  O  Te3       1.0  0.31625  0.63833  0.19450  1.0000
  O  Te4       1.0  0.37935  0.68889  0.09407  1.0000
  Mg  Mg1       1.0  0.28123  0.65590  0.24454  1.0000
  Mg  Mg2       1.0  0.38029  0.73523  0.08682  1.0000
  C  Sn5       1.0  0.36604  0.34245  0.40871  1.0000
  C   C243      1.0  0.36224  0.35455  0.34597  1.0000
  C  Sn6       1.0  0.33896  0.34829  0.29555  1.0000
  C  Sn7       1.0  0.31907  0.32956  0.30817  1.0000
  C   C244      1.0  0.32287  0.31748  0.37089  1.0000
  C  Sn8       1.0  0.34615  0.32373  0.42133  1.0000
  O  Te5       1.0  0.38947  0.34902  0.45838  1.0000
  O  Te6       1.0  0.33561  0.36063  0.23319  1.0000
  O  Te7       1.0  0.29563  0.32300  0.25843  1.0000
  O  Te8       1.0  0.34950  0.31141  0.48367  1.0000
  Mg  Mg3       1.0  0.30027  0.34514  0.18169  1.0000
  Mg  Mg4       1.0  0.38483  0.32691  0.53527  1.0000
  C  Sn9       1.0  0.66291  0.38248  0.09429  1.0000
  C   C245      1.0  0.68794  0.39538  0.12367  1.0000
  C  Sn10      1.0  0.69741  0.43168  0.14063  1.0000
  C  Sn11      1.0  0.68153  0.45561  0.12805  1.0000
  C   C246      1.0  0.65652  0.44271  0.09871  1.0000
  C  Sn12      1.0  0.64703  0.40640  0.08171  1.0000
  O  Te9       1.0  0.65384  0.34609  0.07776  1.0000
  O  Te10      1.0  0.72250  0.44395  0.16991  1.0000
  O  Te11      1.0  0.69062  0.49202  0.14461  1.0000
  O  Te12      1.0  0.62195  0.39414  0.05248  1.0000
  Mg  Mg5       1.0  0.72612  0.49588  0.18356  1.0000
  Mg  Mg6       1.0  0.61831  0.34224  0.03887  1.0000
  C  Sn13      1.0  0.68376  0.58777  0.32298  1.0000
  C   C247      1.0  0.67885  0.61151  0.29149  1.0000
  C  Sn14      1.0  0.65611  0.63385  0.32075  1.0000
  C  Sn15      1.0  0.63790  0.63247  0.38284  1.0000
  C   C248      1.0  0.64282  0.60875  0.41432  1.0000
  C  Sn16      1.0  0.66555  0.58639  0.38508  1.0000
  O  Te13      1.0  0.70662  0.56568  0.29283  1.0000
  O  Te14      1.0  0.65162  0.65735  0.28828  1.0000
  O  Te15      1.0  0.61502  0.65459  0.41298  1.0000
  O  Te16      1.0  0.67004  0.56291  0.41753  1.0000
  Mg  Mg7       1.0  0.61765  0.68210  0.34937  1.0000
  Mg  Mg8       1.0  0.70401  0.53817  0.35654  1.0000
  C  Sn17      1.0  0.25386  0.87382  0.27995  1.0000
  C   C249      1.0  0.22912  0.86435  0.28102  1.0000
  C  Sn18      1.0  0.22287  0.84169  0.31419  1.0000
  C  Sn19      1.0  0.24173  0.82823  0.34706  1.0000
  C   C250      1.0  0.26645  0.83771  0.34600  1.0000
  C  Sn20      1.0  0.27272  0.86036  0.31282  1.0000
  O  Te17      1.0  0.25968  0.89651  0.24649  1.0000
  O  Te18      1.0  0.19800  0.83258  0.31453  1.0000
  O  Te19      1.0  0.23589  0.80552  0.38053  1.0000
  O  Te20      1.0  0.29757  0.86948  0.31249  1.0000
  Mg  Mg9       1.0  0.19937  0.80085  0.36696  1.0000
  Mg  Mg10      1.0  0.29622  0.90123  0.26014  1.0000
  C  Sn21      1.0  0.75769  0.63866  0.11666  1.0000
  C   C251      1.0  0.76038  0.66993  0.10727  1.0000
  C  Sn22      1.0  0.74168  0.70244  0.14861  1.0000
  C  Sn23      1.0  0.71983  0.70374  0.20049  1.0000
  C   C252      1.0  0.71714  0.67249  0.20989  1.0000
  C  Sn24      1.0  0.73584  0.63996  0.16855  1.0000
  O  Te21      1.0  0.77663  0.60646  0.07475  1.0000
  O  Te22      1.0  0.74479  0.73333  0.13820  1.0000
  O  Te23      1.0  0.70088  0.73598  0.24241  1.0000
  O  Te24      1.0  0.73273  0.60908  0.17895  1.0000
  Mg  Mg11      1.0  0.71377  0.77082  0.20843  1.0000
  Mg  Mg12      1.0  0.76375  0.57161  0.10882  1.0000
  C  Sn25      1.0  0.77457  0.35794  0.25361  1.0000
  C   C253      1.0  0.77560  0.32216  0.24781  1.0000
  C  Sn26      1.0  0.75423  0.29690  0.22269  1.0000
  C  Sn27      1.0  0.73134  0.30760  0.20288  1.0000
  C   C254      1.0  0.73031  0.34335  0.20867  1.0000
  C  Sn28      1.0  0.75167  0.36863  0.23380  1.0000
  O  Te25      1.0  0.79617  0.38273  0.27885  1.0000
  O  Te26      1.0  0.75572  0.26131  0.21741  1.0000
  O  Te27      1.0  0.70972  0.28277  0.17764  1.0000
  O  Te28      1.0  0.75019  0.40420  0.23907  1.0000
  Mg  Mg13      1.0  0.72120  0.23743  0.17997  1.0000
  Mg  Mg14      1.0  0.78470  0.42808  0.27643  1.0000
  C  Sn29      1.0  0.27981  0.20658  0.45784  1.0000
  C   C255      1.0  0.25835  0.18590  0.38204  1.0000
  C  Sn30      1.0  0.25569  0.18142  0.28442  1.0000
  C  Sn31      1.0  0.27488  0.19792  0.26202  1.0000
  C   C256      1.0  0.29632  0.21858  0.33777  1.0000
  C  Sn32      1.0  0.29900  0.22309  0.43544  1.0000
  O  Te29      1.0  0.28207  0.21070  0.55490  1.0000
  O  Te30      1.0  0.23407  0.16063  0.20993  1.0000
  O  Te31      1.0  0.27260  0.19378  0.16487  1.0000
  O  Te32      1.0  0.32061  0.24385  0.50988  1.0000
  Mg  Mg15      1.0  0.23966  0.16293  0.08908  1.0000
  Mg  Mg16      1.0  0.31504  0.24155  0.63071  1.0000
  C  Sn33      1.0  0.18037  0.94523  0.12708  1.0000
  C   C257      1.0  0.15495  0.93587  0.10562  1.0000
  C  Sn34      1.0  0.14237  0.92155  0.15164  1.0000
  C  Sn35      1.0  0.15547  0.91651  0.22061  1.0000
  C   C258      1.0  0.18088  0.92587  0.24205  1.0000
  C  Sn36      1.0  0.19348  0.94019  0.19605  1.0000
  O  Te33      1.0  0.19257  0.95951  0.08020  1.0000
  O  Te34      1.0  0.11695  0.91239  0.12895  1.0000
  O  Te35      1.0  0.14325  0.90222  0.26748  1.0000
  O  Te36      1.0  0.21888  0.94936  0.21872  1.0000
  Mg  Mg17      1.0  0.10855  0.89389  0.21215  1.0000
  Mg  Mg18      1.0  0.22729  0.96788  0.13563  1.0000
  C  Sn37      1.0  0.84212  0.19010  0.53514  1.0000
  C   C259      1.0  0.81746  0.19286  0.56565  1.0000
  C  Sn38      1.0  0.80822  0.16139  0.56718  1.0000
  C  Sn39      1.0  0.82350  0.12644  0.53768  1.0000
  C   C260      1.0  0.84814  0.12371  0.50722  1.0000
  C  Sn40      1.0  0.85785  0.15516  0.50564  1.0000
  O  Te37      1.0  0.85096  0.22194  0.53420  1.0000
  O  Te38      1.0  0.78305  0.16482  0.59793  1.0000
  O  Te39      1.0  0.81464  0.09460  0.53864  1.0000
  O  Te40      1.0  0.88255  0.15174  0.47494  1.0000
  Mg  Mg19      1.0  0.77963  0.11345  0.58649  1.0000
  Mg  Mg20      1.0  0.88600  0.20311  0.48642  1.0000
  C  Sn41      1.0  0.84227  0.18873  0.02467  1.0000
  C   C261      1.0  0.81736  0.19146  0.05197  1.0000
  C  Sn42      1.0  0.80739  0.15952  0.05048  1.0000
  C  Sn43      1.0  0.82265  0.12413  0.02118  1.0000
  C   C262      1.0  0.85050  0.40335  0.99393  1.0000
  C  Sn44      1.0  0.86049  0.43528  0.99537  1.0000
  O  Te41      1.0  0.85185  0.22104  0.02671  1.0000
  O  Te42      1.0  0.78243  0.16294  0.07805  1.0000
  O  Te43      1.0  0.81305  0.09182  0.01916  1.0000
  O  Te44      1.0  0.88543  0.43187  0.96784  1.0000
  Mg  Mg21      1.0  0.77796  0.11084  0.06327  1.0000
  Mg  Mg22      1.0  0.88992  0.48397  0.98266  1.0000
  C  Sn45      1.0  0.17742  0.14978  0.43311  1.0000
  C   C263      1.0  0.20175  0.14697  0.45814  1.0000
  C  Sn46      1.0  0.20699  0.11799  0.47290  1.0000
  C  Sn47      1.0  0.18799  0.09124  0.46234  1.0000
  C   C264      1.0  0.16368  0.09405  0.43731  1.0000
  C  Sn48      1.0  0.15842  0.12303  0.42256  1.0000
  O  Te45      1.0  0.17215  0.17898  0.41870  1.0000
  O  Te46      1.0  0.23144  0.11577  0.49791  1.0000
  O  Te47      1.0  0.19328  0.06202  0.47678  1.0000
  O  Te48      1.0  0.13399  0.12525  0.39754  1.0000
  Mg  Mg23      1.0  0.22939  0.07087  0.50988  1.0000
  Mg  Mg24      1.0  0.13602  0.17011  0.38549  1.0000
  C  Sn49      1.0  0.83878  0.75884  0.15930  1.0000
  C   C265      1.0  0.81380  0.77042  0.18855  1.0000
  C  Sn50      1.0  0.80316  0.80428  0.19857  1.0000
  C  Sn51      1.0  0.81779  0.82701  0.17887  1.0000
  C   C266      1.0  0.84276  0.81542  0.14962  1.0000
  C  Sn52      1.0  0.85341  0.78157  0.13960  1.0000
  O  Te49      1.0  0.84903  0.72489  0.14976  1.0000
  O  Te50      1.0  0.77815  0.81528  0.22795  1.0000
  O  Te51      1.0  0.80752  0.86098  0.18845  1.0000
  O  Te52      1.0  0.87841  0.77056  0.11022  1.0000
  Mg  Mg25      1.0  0.77263  0.86387  0.23044  1.0000
  Mg  Mg26      1.0  0.88394  0.72195  0.10765  1.0000
  C  Sn53      1.0  0.31283  0.69532  0.72764  1.0000
  C   C267      1.0  0.31464  0.73490  0.74853  1.0000
  C  Sn54      1.0  0.33393  0.73794  0.69576  1.0000
  C  Sn55      1.0  0.35178  0.70063  0.62048  1.0000
  C   C268      1.0  0.34996  0.66107  0.59960  1.0000
  C  Sn56      1.0  0.33068  0.65800  0.65236  1.0000
  O  Te53      1.0  0.29339  0.69302  0.78132  1.0000
  O  Te54      1.0  0.33535  0.77788  0.71802  1.0000
  O  Te55      1.0  0.37123  0.70296  0.56679  1.0000
  O  Te56      1.0  0.32925  0.61809  0.63012  1.0000
  Mg  Mg27      1.0  0.36525  0.76459  0.62433  1.0000
  Mg  Mg28      1.0  0.29936  0.63134  0.72370  1.0000
  C  Sn57      1.0  0.36758  0.33886  0.90160  1.0000
  C   C269      1.0  0.36328  0.35136  0.84009  1.0000
  C  Sn58      1.0  0.33979  0.34526  0.79152  1.0000
  C  Sn59      1.0  0.32019  0.32629  0.80476  1.0000
  C   C270      1.0  0.32449  0.31380  0.86625  1.0000
  C  Sn60      1.0  0.34797  0.31989  0.91484  1.0000
  O  Te57      1.0  0.39121  0.34527  0.94943  1.0000
  O  Te58      1.0  0.33595  0.35800  0.73036  1.0000
  O  Te59      1.0  0.29655  0.31988  0.75685  1.0000
  O  Te60      1.0  0.35182  0.30716  0.97598  1.0000
  Mg  Mg29      1.0  0.30050  0.34258  0.68123  1.0000
  Mg  Mg30      1.0  0.38430  0.04066  0.02520  1.0000
  C  Sn61      1.0  0.64715  0.40842  0.64345  1.0000
  C   C271      1.0  0.65152  0.42980  0.60505  1.0000
  C  Sn62      1.0  0.67548  0.43258  0.57818  1.0000
  C  Sn63      1.0  0.69548  0.41358  0.58985  1.0000
  C   C272      1.0  0.69110  0.39221  0.62820  1.0000
  C  Sn64      1.0  0.66715  0.38942  0.65512  1.0000
  O  Te61      1.0  0.62304  0.40603  0.66981  1.0000
  O  Te62      1.0  0.67939  0.45413  0.53999  1.0000
  O  Te63      1.0  0.71959  0.41598  0.56344  1.0000
  O  Te64      1.0  0.66323  0.36788  0.69326  1.0000
  Mg  Mg31      1.0  0.71554  0.44875  0.51469  1.0000
  Mg  Mg32      1.0  0.62708  0.37322  0.71852  1.0000
  C  Sn65      1.0  0.63842  0.60936  0.79319  1.0000
  C   C273      1.0  0.64343  0.59078  0.83893  1.0000
  C  Sn66      1.0  0.66720  0.59447  0.88148  1.0000
  C  Sn67      1.0  0.68636  0.61722  0.87834  1.0000
  C   C274      1.0  0.68135  0.63579  0.83265  1.0000
  C  Sn68      1.0  0.65758  0.63211  0.79004  1.0000
  O  Te65      1.0  0.61452  0.60527  0.75113  1.0000
  O  Te66      1.0  0.67176  0.57561  0.92676  1.0000
  O  Te67      1.0  0.71027  0.62129  0.92045  1.0000
  O  Te68      1.0  0.65302  0.65096  0.74482  1.0000
  Mg  Mg33      1.0  0.70732  0.59002  0.97368  1.0000
  Mg  Mg34      1.0  0.61746  0.63660  0.69793  1.0000
  C  Sn69      1.0  0.26627  0.88295  0.84302  1.0000
  C   C275      1.0  0.26878  0.84981  0.84617  1.0000
  C  Sn70      1.0  0.24844  0.82253  0.82081  1.0000
  C  Sn71      1.0  0.22511  0.82847  0.79160  1.0000
  C   C276      1.0  0.22260  0.86159  0.78844  1.0000
  C  Sn72      1.0  0.24293  0.88889  0.81382  1.0000
  O  Te69      1.0  0.28686  0.90984  0.86869  1.0000
  O  Te70      1.0  0.25141  0.78963  0.82456  1.0000
  O  Te71      1.0  0.20452  0.80155  0.76593  1.0000
  O  Te72      1.0  0.23998  0.92177  0.81005  1.0000
  Mg  Mg35      1.0  0.21786  0.76133  0.78263  1.0000
  Mg  Mg36      1.0  0.27351  0.95007  0.85190  1.0000
  C  Sn73      1.0  0.75867  0.64435  0.61896  1.0000
  C   C277      1.0  0.76120  0.67583  0.61017  1.0000
  C  Sn74      1.0  0.74233  0.70801  0.65113  1.0000
  C  Sn75      1.0  0.72048  0.70879  0.70201  1.0000
  C   C278      1.0  0.71795  0.67734  0.71081  1.0000
  C  Sn76      1.0  0.73681  0.64513  0.66985  1.0000
  O  Te73      1.0  0.77777  0.61248  0.57745  1.0000
  O  Te74      1.0  0.74529  0.73912  0.64134  1.0000
  O  Te75      1.0  0.70137  0.74070  0.74354  1.0000
  O  Te76      1.0  0.73387  0.61404  0.67964  1.0000
  Mg  Mg37      1.0  0.71408  0.77600  0.71068  1.0000
  Mg  Mg38      1.0  0.76507  0.57716  0.61039  1.0000
  C  Sn77      1.0  0.75858  0.34678  0.69027  1.0000
  C   C279      1.0  0.73407  0.34063  0.70387  1.0000
  C  Sn78      1.0  0.72866  0.31918  0.74122  1.0000
  C  Sn79      1.0  0.74815  0.30358  0.76557  1.0000
  C   C280      1.0  0.77265  0.30974  0.75200  1.0000
  C  Sn80      1.0  0.77808  0.33118  0.71463  1.0000
  O  Te77      1.0  0.76357  0.36832  0.65284  1.0000
  O  Te78      1.0  0.70400  0.31340  0.75412  1.0000
  O  Te79      1.0  0.74315  0.28203  0.80303  1.0000
  O  Te80      1.0  0.80271  0.33697  0.70175  1.0000
  Mg  Mg39      1.0  0.70661  0.28208  0.80747  1.0000
  Mg  Mg40      1.0  0.80013  0.36831  0.64847  1.0000
  C  Sn81      1.0  0.27936  0.20949  0.96636  1.0000
  C   C281      1.0  0.25847  0.18727  0.88644  1.0000
  C  Sn82      1.0  0.25714  0.17919  0.78233  1.0000
  C  Sn83      1.0  0.27712  0.19359  0.75753  1.0000
  C   C282      1.0  0.29800  0.21580  0.83740  1.0000
  C  Sn84      1.0  0.29935  0.22390  0.94156  1.0000
  O  Te81      1.0  0.27733  0.93528  0.06989  1.0000
  O  Te82      1.0  0.23605  0.15692  0.70381  1.0000
  O  Te83      1.0  0.27663  0.18586  0.65390  1.0000
  O  Te84      1.0  0.31746  0.96422  0.02003  1.0000
  Mg  Mg41      1.0  0.24351  0.15419  0.57452  1.0000
  Mg  Mg42      1.0  0.31002  0.96694  0.14930  1.0000
  C  Sn85      1.0  0.18536  0.96466  0.73069  1.0000
  C   C283      1.0  0.18146  0.93817  0.75459  1.0000
  C  Sn86      1.0  0.15981  0.91078  0.71173  1.0000
  C  Sn87      1.0  0.14167  0.90983  0.64348  1.0000
  C   C284      1.0  0.14558  0.93630  0.61959  1.0000
  C  Sn88      1.0  0.16723  0.96370  0.66244  1.0000
  O  Te85      1.0  0.20714  0.99178  0.77443  1.0000
  O  Te86      1.0  0.15632  0.88461  0.73681  1.0000
  O  Te87      1.0  0.11988  0.88267  0.59974  1.0000
  O  Te88      1.0  0.17072  0.98985  0.63737  1.0000
  Mg  Mg43      1.0  0.12362  0.85309  0.65752  1.0000
  Mg  Mg44      1.0  0.20341  0.02136  0.71656  1.0000
  C  Sn89      1.0  0.18707  0.83756  0.03579  1.0000
  C   C285      1.0  0.16295  0.83750  0.00268  1.0000
  C  Sn90      1.0  0.16164  0.12547  0.92649  1.0000
  C  Sn91      1.0  0.18189  0.13167  0.88239  1.0000
  C   C286      1.0  0.20599  0.13172  0.91549  1.0000
  C  Sn92      1.0  0.21028  0.12569  0.99170  1.0000
  O  Te89      1.0  0.19090  0.83146  0.11206  1.0000
  O  Te90      1.0  0.13737  0.12530  0.89467  1.0000
  O  Te91      1.0  0.17804  0.13777  0.80607  1.0000
  O  Te92      1.0  0.23158  0.84392  0.02349  1.0000
  Mg  Mg45      1.0  0.14161  0.13491  0.78840  1.0000
  Mg  Mg46      1.0  0.22736  0.83428  0.12970  1.0000
  C  Sn93      1.0  0.81932  0.84048  0.72786  1.0000
  C   C287      1.0  0.84406  0.82726  0.69438  1.0000
  C  Sn94      1.0  0.85160  0.78051  0.62611  1.0000
  C  Sn95      1.0  0.83405  0.74624  0.59047  1.0000
  C   C288      1.0  0.80934  0.75946  0.62392  1.0000
  C  Sn96      1.0  0.80178  0.80621  0.69222  1.0000
  O  Te93      1.0  0.81220  0.88742  0.79612  1.0000
  O  Te94      1.0  0.87643  0.76814  0.59377  1.0000
  O  Te95      1.0  0.84120  0.69927  0.52215  1.0000
  O  Te96      1.0  0.77696  0.81858  0.72454  1.0000
  Mg  Mg47      1.0  0.87712  0.69972  0.50026  1.0000
  Mg  Mg48      1.0  0.77625  0.88699  0.81798  1.0000
