data_image0
_chemical_formula_structural       H192C240N16O24C2Sn2C2HTe2HMgC2Sn2C2HTe2HMgC2Sn2C2HTe2HMgC2Sn2C2HTe2HMgC2Sn2C2HTe2HMgC2Sn2C2HTe2HMgC2Sn2C2HTe2HMgC2Sn2C2HTe2HMgC2Sn2C2HTe2HMgC2Sn2C2HTe2HMgC2Sn2C2HTe2HMgC2Sn2C2HTe2HMgC2Sn2C2HTe2HMgC2Sn2C2HTe2HMgC2Sn2C2HTe2HMgC2Sn2C2HTe2HMgC2Sn2C2HTe2HMgC2Sn2C2HTe2HMgC2Sn2C2HTe2HMgC2Sn2C2HTe2HMgC2Sn2C2HTe2HMgC2Sn2C2HTe2HMgC2Sn2C2HTe2HMgC2Sn2C2HTe2HMg
_chemical_formula_sum              "H240 C336 N16 O24 Sn48 Te48 Mg24"
_cell_length_a       51.3976
_cell_length_b       40.3255
_cell_length_c       16.4801
_cell_angle_alpha    138.721
_cell_angle_beta     90.6143
_cell_angle_gamma    89.6901

_symmetry_space_group_name_H-M    'P1'
_space_group_IT_number       1

loop_
  _space_group_symop_operation_xyz
  'x, y, z'

loop_
  _atom_site_type_symbol
  _atom_site_label
  _atom_site_symmetry_multiplicity
  _atom_site_fract_x
  _atom_site_fract_y
  _atom_site_fract_z
  _atom_site_occupancy
  H   H1        1.0  0.99586  0.04758  0.47395  1.0000
  H   H2        1.0  0.97447  0.08778  0.10586  1.0000
  H   H3        1.0  0.94901  0.03169  0.40839  1.0000
  H   H4        1.0  0.94219  0.01878  0.48844  1.0000
  H   H5        1.0  0.98414  0.82635  0.42836  1.0000
  H   H6        1.0  0.01140  0.84893  0.41488  1.0000
  H   H7        1.0  0.97494  0.88923  0.42962  1.0000
  H   H8        1.0  0.98854  0.93246  0.07200  1.0000
  H   H9        1.0  0.42929  0.41061  0.06044  1.0000
  H   H10       1.0  0.43353  0.42022  0.18480  1.0000
  H   H11       1.0  0.47902  0.40006  0.03448  1.0000
  H   H12       1.0  0.46197  0.35135  0.99608  1.0000
  H   H13       1.0  0.46073  0.65022  0.25896  1.0000
  H   H14       1.0  0.45613  0.59467  0.21439  1.0000
  H   H15       1.0  0.47681  0.59666  0.04394  1.0000
  H   H16       1.0  0.44331  0.58910  0.05411  1.0000
  H   H17       1.0  0.14927  0.02715  0.22090  1.0000
  H   H18       1.0  0.12001  0.05256  0.15643  1.0000
  H   H19       1.0  0.54048  0.37479  0.24484  1.0000
  H   H20       1.0  0.57129  0.34601  0.29871  1.0000
  H   H21       1.0  0.61020  0.36064  0.41069  1.0000
  H   H22       1.0  0.64835  0.50616  0.16717  1.0000
  H   H23       1.0  0.61696  0.53473  0.11800  1.0000
  H   H24       1.0  0.57460  0.66534  0.16057  1.0000
  H   H25       1.0  0.54058  0.63490  0.19963  1.0000
  H   H26       1.0  0.61362  0.64893  0.05053  1.0000
  H   H27       1.0  0.65128  0.50731  0.31533  1.0000
  H   H28       1.0  0.61985  0.47984  0.36540  1.0000
  H   H29       1.0  0.43799  0.52434  0.17486  1.0000
  H   H30       1.0  0.40488  0.59243  0.29012  1.0000
  H   H31       1.0  0.37052  0.64237  0.44561  1.0000
  H   H32       1.0  0.35483  0.62323  0.17907  1.0000
  H   H33       1.0  0.38800  0.55702  0.06710  1.0000
  H   H34       1.0  0.44769  0.42392  0.45901  1.0000
  H   H35       1.0  0.47808  0.47030  0.98026  1.0000
  H   H36       1.0  0.40424  0.38685  0.40373  1.0000
  H   H37       1.0  0.34557  0.41457  0.27218  1.0000
  H   H38       1.0  0.37567  0.47023  0.30142  1.0000
  H   H39       1.0  0.49261  0.54493  0.15666  1.0000
  H   H40       1.0  0.49466  0.59857  0.31967  1.0000
  H   H41       1.0  0.53663  0.55937  0.25212  1.0000
  H   H42       1.0  0.54036  0.61398  0.29130  1.0000
  H   H43       1.0  0.51194  0.43377  0.15545  1.0000
  H   H44       1.0  0.52157  0.38172  0.12107  1.0000
  H   H45       1.0  0.51031  0.43427  0.34264  1.0000
  H   H46       1.0  0.50372  0.48586  0.37182  1.0000
  H   H47       1.0  0.28612  0.80782  0.27366  1.0000
  H   H48       1.0  0.26253  0.76233  0.21398  1.0000
  H   H49       1.0  0.25762  0.79592  0.41319  1.0000
  H   H50       1.0  0.29650  0.29117  0.38719  1.0000
  H   H51       1.0  0.28212  0.26811  0.25429  1.0000
  H   H52       1.0  0.33218  0.22717  0.25734  1.0000
  H   H53       1.0  0.69568  0.67991  0.32860  1.0000
  H   H54       1.0  0.72024  0.63848  0.28389  1.0000
  H   H55       1.0  0.67488  0.61125  0.11806  1.0000
  H   H56       1.0  0.70933  0.32072  0.07783  1.0000
  H   H57       1.0  0.73227  0.36193  0.10937  1.0000
  H   H58       1.0  0.71898  0.43132  0.32768  1.0000
  H   H59       1.0  0.17571  0.92155  0.39932  1.0000
  H   H60       1.0  0.19849  0.85500  0.19839  1.0000
  H   H61       1.0  0.22237  0.89865  0.24769  1.0000
  H   H62       1.0  0.23040  0.10177  0.20749  1.0000
  H   H63       1.0  0.23865  0.18927  0.43134  1.0000
  H   H64       1.0  0.26076  0.16014  0.44592  1.0000
  H   H65       1.0  0.78508  0.26810  0.28503  1.0000
  H   H66       1.0  0.80594  0.26087  0.09838  1.0000
  H   H67       1.0  0.78013  0.22514  0.07237  1.0000
  H   H68       1.0  0.77757  0.68194  0.00844  1.0000
  H   H69       1.0  0.78210  0.74157  0.23765  1.0000
  H   H70       1.0  0.76040  0.78307  0.26442  1.0000
  H   H71       1.0  0.05304  0.88292  0.24053  1.0000
  H   H72       1.0  0.08239  0.85929  0.30971  1.0000
  H   H73       1.0  0.11677  0.88194  0.45092  1.0000
  H   H74       1.0  0.01330  0.97755  0.31430  1.0000
  H   H75       1.0  0.02059  0.93352  0.30970  1.0000
  H   H76       1.0  0.04669  0.88541  0.10660  1.0000
  H   H77       1.0  0.02917  0.92433  0.10969  1.0000
  H   H78       1.0  0.92576  0.03337  0.15377  1.0000
  H   H79       1.0  0.88957  0.08572  0.29447  1.0000
  H   H80       1.0  0.85638  0.06318  0.48900  1.0000
  H   H81       1.0  0.88503  0.99087  0.37962  1.0000
  H   H82       1.0  0.08622  0.18136  0.18905  1.0000
  H   H83       1.0  0.04878  0.15189  0.21328  1.0000
  H   H84       1.0  0.12957  0.16648  0.10379  1.0000
  H   H85       1.0  0.16989  0.02380  0.38681  1.0000
  H   H86       1.0  0.13142  0.99354  0.40066  1.0000
  H   H87       1.0  0.03244  0.12129  0.29072  1.0000
  H   H88       1.0  0.01678  0.11355  0.18032  1.0000
  H   H89       1.0  0.93565  0.84599  0.28399  1.0000
  H   H90       1.0  0.97053  0.90323  0.33415  1.0000
  H   H91       1.0  0.88995  0.82171  0.23955  1.0000
  H   H92       1.0  0.84032  0.85808  0.10288  1.0000
  H   H93       1.0  0.87590  0.90595  0.12829  1.0000
  H   H94       1.0  0.98866  0.09187  0.25779  1.0000
  H   H95       1.0  0.01038  0.04243  0.19488  1.0000
  H   H96       1.0  0.95539  0.96261  0.04562  1.0000
  H   H97       1.0  0.99729  0.04819  0.98346  1.0000
  H   H98       1.0  0.97392  0.08795  0.59950  1.0000
  H   H99       1.0  0.95090  0.03502  0.91333  1.0000
  H   H100      1.0  0.94234  0.01834  0.98357  1.0000
  H   H101      1.0  0.98357  0.82466  0.93797  1.0000
  H   H102      1.0  0.01076  0.84506  0.91820  1.0000
  H   H103      1.0  0.97374  0.88276  0.92392  1.0000
  H   H104      1.0  0.98933  0.93669  0.57964  1.0000
  H   H105      1.0  0.42752  0.41056  0.57155  1.0000
  H   H106      1.0  0.43454  0.41696  0.68922  1.0000
  H   H107      1.0  0.47673  0.39841  0.52968  1.0000
  H   H108      1.0  0.46041  0.34899  0.49071  1.0000
  H   H109      1.0  0.45930  0.64726  0.78261  1.0000
  H   H110      1.0  0.45694  0.58443  0.70233  1.0000
  H   H111      1.0  0.47393  0.61126  0.57937  1.0000
  H   H112      1.0  0.44081  0.59963  0.58411  1.0000
  H   H113      1.0  0.15060  0.03025  0.72026  1.0000
  H   H114      1.0  0.12189  0.05407  0.65074  1.0000
  H   H115      1.0  0.54565  0.36747  0.71408  1.0000
  H   H116      1.0  0.57611  0.34082  0.77451  1.0000
  H   H117      1.0  0.61248  0.35989  0.90275  1.0000
  H   H118      1.0  0.65052  0.50239  0.65793  1.0000
  H   H119      1.0  0.61880  0.53356  0.61669  1.0000
  H   H120      1.0  0.57510  0.66908  0.67861  1.0000
  H   H121      1.0  0.54222  0.64062  0.72542  1.0000
  H   H122      1.0  0.61332  0.65129  0.56177  1.0000
  H   H123      1.0  0.65378  0.50752  0.81550  1.0000
  H   H124      1.0  0.62201  0.47919  0.86217  1.0000
  H   H125      1.0  0.43714  0.52317  0.68408  1.0000
  H   H126      1.0  0.40413  0.59142  0.80155  1.0000
  H   H127      1.0  0.37060  0.64133  0.95821  1.0000
  H   H128      1.0  0.35295  0.62221  0.66082  1.0000
  H   H129      1.0  0.38671  0.55702  0.55271  1.0000
  H   H130      1.0  0.44732  0.41067  0.93570  1.0000
  H   H131      1.0  0.47739  0.48464  0.50216  1.0000
  H   H132      1.0  0.40332  0.37742  0.88791  1.0000
  H   H133      1.0  0.34381  0.41771  0.78870  1.0000
  H   H134      1.0  0.37435  0.47392  0.82269  1.0000
  H   H135      1.0  0.49386  0.54968  0.69248  1.0000
  H   H136      1.0  0.49564  0.61060  0.84892  1.0000
  H   H137      1.0  0.53755  0.56945  0.78580  1.0000
  H   H138      1.0  0.54073  0.62165  0.81492  1.0000
  H   H139      1.0  0.50984  0.43440  0.64966  1.0000
  H   H140      1.0  0.52255  0.38028  0.59995  1.0000
  H   H141      1.0  0.51377  0.42466  0.81697  1.0000
  H   H142      1.0  0.50552  0.47955  0.86194  1.0000
  H   H143      1.0  0.28697  0.81436  0.78676  1.0000
  H   H144      1.0  0.26335  0.76667  0.70711  1.0000
  H   H145      1.0  0.25496  0.78783  0.88809  1.0000
  H   H146      1.0  0.29227  0.28624  0.87346  1.0000
  H   H147      1.0  0.28002  0.26120  0.73535  1.0000
  H   H148      1.0  0.32937  0.22413  0.75464  1.0000
  H   H149      1.0  0.69807  0.67997  0.82735  1.0000
  H   H150      1.0  0.72197  0.63684  0.77791  1.0000
  H   H151      1.0  0.67630  0.61390  0.61885  1.0000
  H   H152      1.0  0.70638  0.31956  0.58729  1.0000
  H   H153      1.0  0.73043  0.35318  0.59520  1.0000
  H   H154      1.0  0.72176  0.43040  0.81758  1.0000
  H   H155      1.0  0.17553  0.92255  0.89865  1.0000
  H   H156      1.0  0.20194  0.86141  0.70454  1.0000
  H   H157      1.0  0.22366  0.91016  0.76813  1.0000
  H   H158      1.0  0.22811  0.09906  0.70699  1.0000
  H   H159      1.0  0.23474  0.18905  0.92667  1.0000
  H   H160      1.0  0.25717  0.16426  0.95260  1.0000
  H   H161      1.0  0.78773  0.27088  0.78841  1.0000
  H   H162      1.0  0.80597  0.25948  0.59180  1.0000
  H   H163      1.0  0.78033  0.22597  0.57540  1.0000
  H   H164      1.0  0.78034  0.68353  0.51253  1.0000
  H   H165      1.0  0.78249  0.74399  0.74238  1.0000
  H   H166      1.0  0.76067  0.78393  0.76357  1.0000
  H   H167      1.0  0.05453  0.87979  0.72916  1.0000
  H   H168      1.0  0.08419  0.85485  0.79454  1.0000
  H   H169      1.0  0.11792  0.87687  0.93627  1.0000
  H   H170      1.0  0.01289  0.97313  0.80888  1.0000
  H   H171      1.0  0.02163  0.92738  0.79696  1.0000
  H   H172      1.0  0.04754  0.88366  0.59892  1.0000
  H   H173      1.0  0.03060  0.92499  0.60884  1.0000
  H   H174      1.0  0.92548  0.03642  0.65831  1.0000
  H   H175      1.0  0.88969  0.08887  0.80249  1.0000
  H   H176      1.0  0.85760  0.06436  0.99420  1.0000
  H   H177      1.0  0.88638  0.99189  0.88183  1.0000
  H   H178      1.0  0.08898  0.18111  0.67851  1.0000
  H   H179      1.0  0.05073  0.15358  0.70481  1.0000
  H   H180      1.0  0.13220  0.16458  0.59361  1.0000
  H   H181      1.0  0.16856  0.02665  0.89548  1.0000
  H   H182      1.0  0.13079  0.99508  0.90889  1.0000
  H   H183      1.0  0.03300  0.12584  0.78449  1.0000
  H   H184      1.0  0.01743  0.11503  0.66913  1.0000
  H   H185      1.0  0.93692  0.85041  0.79224  1.0000
  H   H186      1.0  0.97172  0.90671  0.83771  1.0000
  H   H187      1.0  0.89121  0.82589  0.74868  1.0000
  H   H188      1.0  0.84154  0.85776  0.60171  1.0000
  H   H189      1.0  0.87679  0.90550  0.62534  1.0000
  H   H190      1.0  0.98957  0.09654  0.75491  1.0000
  H   H191      1.0  0.01165  0.04856  0.69810  1.0000
  H   H192      1.0  0.95497  0.96503  0.54558  1.0000
  C   C1        1.0  0.59363  0.41510  0.42837  1.0000
  C   C2        1.0  0.59602  0.46466  0.48573  1.0000
  C   C3        1.0  0.57782  0.48122  0.45627  1.0000
  C   C4        1.0  0.55825  0.44863  0.36969  1.0000
  C   C5        1.0  0.55581  0.39968  0.31276  1.0000
  C   C6        1.0  0.57306  0.38362  0.34244  1.0000
  C   C7        1.0  0.61187  0.39882  0.45774  1.0000
  C   C8        1.0  0.63254  0.43081  0.03938  1.0000
  C   C9        1.0  0.63342  0.48031  0.09828  1.0000
  C   C10       1.0  0.61589  0.49641  0.07007  1.0000
  C   C11       1.0  0.57887  0.53013  0.00514  1.0000
  C   C12       1.0  0.59760  0.54914  0.49215  1.0000
  C   C13       1.0  0.59692  0.59642  0.03851  1.0000
  C   C14       1.0  0.57595  0.62806  0.11894  1.0000
  C   C15       1.0  0.55722  0.61167  0.14202  1.0000
  C   C16       1.0  0.55882  0.56270  0.08552  1.0000
  C   C17       1.0  0.61556  0.61170  0.00886  1.0000
  C   C18       1.0  0.63415  0.58133  0.43260  1.0000
  C   C19       1.0  0.63609  0.53315  0.38131  1.0000
  C   C20       1.0  0.61826  0.51736  0.40876  1.0000
  C   C21       1.0  0.39351  0.58627  0.40489  1.0000
  C   C22       1.0  0.39822  0.56078  0.43362  1.0000
  C   C23       1.0  0.41779  0.52265  0.36849  1.0000
  C   C24       1.0  0.43142  0.51022  0.27562  1.0000
  C   C25       1.0  0.42684  0.53579  0.24842  1.0000
  C   C26       1.0  0.40840  0.57300  0.31165  1.0000
  C   C27       1.0  0.37419  0.62399  0.46985  1.0000
  C   C28       1.0  0.36014  0.63731  0.07643  1.0000
  C   C29       1.0  0.36544  0.61220  0.10488  1.0000
  C   C30       1.0  0.38414  0.57512  0.04235  1.0000
  C   C31       1.0  0.42461  0.49768  0.40056  1.0000
  C   C32       1.0  0.40723  0.46316  0.37576  1.0000
  C   C33       1.0  0.41541  0.43757  0.40131  1.0000
  C   C34       1.0  0.44122  0.44465  0.44373  1.0000
  C   C35       1.0  0.45767  0.47815  0.46798  1.0000
  C   C36       1.0  0.44918  0.50577  0.45002  1.0000
  C   C37       1.0  0.39768  0.40571  0.38327  1.0000
  C   C38       1.0  0.37257  0.39751  0.33915  1.0000
  C   C39       1.0  0.36517  0.42069  0.30718  1.0000
  C   C40       1.0  0.38192  0.45225  0.32447  1.0000
  C   C41       1.0  0.50162  0.58227  0.23228  1.0000
  C   C42       1.0  0.53092  0.57698  0.22656  1.0000
  C   C43       1.0  0.50880  0.41492  0.17937  1.0000
  C   C44       1.0  0.51515  0.45135  0.31550  1.0000
  C   C45       1.0  0.27908  0.78371  0.27858  1.0000
  C   C46       1.0  0.26746  0.81909  0.40991  1.0000
  C   C47       1.0  0.28805  0.84707  0.50337  1.0000
  C   C48       1.0  0.30078  0.27360  0.29627  1.0000
  C   C49       1.0  0.31275  0.22098  0.21875  1.0000
  C   C50       1.0  0.31669  0.19289  0.09202  1.0000
  C   C51       1.0  0.69958  0.64033  0.27029  1.0000
  C   C52       1.0  0.69561  0.61018  0.13399  1.0000
  C   C53       1.0  0.70264  0.55759  0.04973  1.0000
  C   C54       1.0  0.71280  0.35998  0.13238  1.0000
  C   C55       1.0  0.71374  0.39233  0.27179  1.0000
  C   C56       1.0  0.68772  0.39414  0.30899  1.0000
  C   C57       1.0  0.19640  0.92569  0.39091  1.0000
  C   C58       1.0  0.20167  0.89453  0.25458  1.0000
  C   C59       1.0  0.20082  0.97905  0.47346  1.0000
  C   C60       1.0  0.24894  0.11401  0.25802  1.0000
  C   C61       1.0  0.24290  0.15405  0.39871  1.0000
  C   C62       1.0  0.26030  0.06913  0.21215  1.0000
  C   C63       1.0  0.79291  0.28523  0.26101  1.0000
  C   C64       1.0  0.79895  0.24249  0.11995  1.0000
  C   C65       1.0  0.81668  0.31226  0.33358  1.0000
  C   C66       1.0  0.76203  0.70814  0.07401  1.0000
  C   C67       1.0  0.77534  0.75446  0.20147  1.0000
  C   C68       1.0  0.75198  0.72337  0.52373  1.0000
  C   C69       1.0  0.10128  0.93215  0.45175  1.0000
  C   C70       1.0  0.10221  0.97910  0.00570  1.0000
  C   C71       1.0  0.08568  0.99489  0.46659  1.0000
  C   C72       1.0  0.06778  0.95943  0.37221  1.0000
  C   C73       1.0  0.06671  0.91035  0.31554  1.0000
  C   C74       1.0  0.08319  0.89712  0.35421  1.0000
  C   C75       1.0  0.11798  0.91963  0.49467  1.0000
  C   C76       1.0  0.13573  0.94970  0.08203  1.0000
  C   C77       1.0  0.13623  0.99960  0.14261  1.0000
  C   C78       1.0  0.11978  0.01393  0.10673  1.0000
  C   C79       1.0  0.02733  0.94878  0.27979  1.0000
  C   C80       1.0  0.02871  0.90743  0.13955  1.0000
  C   C81       1.0  0.90565  0.02443  0.25124  1.0000
  C   C82       1.0  0.90428  0.99575  0.27231  1.0000
  C   C83       1.0  0.92161  0.95466  0.20942  1.0000
  C   C84       1.0  0.93955  0.94275  0.12709  1.0000
  C   C85       1.0  0.94122  0.97166  0.10830  1.0000
  C   C86       1.0  0.92451  0.01138  0.16887  1.0000
  C   C87       1.0  0.88866  0.06560  0.31489  1.0000
  C   C88       1.0  0.87075  0.07992  0.39925  1.0000
  C   C89       1.0  0.86985  0.05179  0.42104  1.0000
  C   C90       1.0  0.88604  0.01137  0.36036  1.0000
  C   C91       1.0  0.08563  0.04498  0.02820  1.0000
  C   C92       1.0  0.10772  0.06256  0.01708  1.0000
  C   C93       1.0  0.10795  0.11227  0.07439  1.0000
  C   C94       1.0  0.08609  0.14345  0.14415  1.0000
  C   C95       1.0  0.06503  0.12677  0.15742  1.0000
  C   C96       1.0  0.06470  0.07742  0.09915  1.0000
  C   C97       1.0  0.12988  0.12887  0.06071  1.0000
  C   C98       1.0  0.15377  0.09631  0.48673  1.0000
  C   C99       1.0  0.15313  0.04825  0.43620  1.0000
  C   C100      1.0  0.13144  0.03113  0.44433  1.0000
  C   C101      1.0  0.00266  0.06412  0.18326  1.0000
  C   C102      1.0  0.02446  0.09324  0.19612  1.0000
  C   C103      1.0  0.92345  0.92628  0.23475  1.0000
  C   C104      1.0  0.90344  0.89369  0.20418  1.0000
  C   C105      1.0  0.90758  0.86639  0.22830  1.0000
  C   C106      1.0  0.93236  0.86839  0.27076  1.0000
  C   C107      1.0  0.95146  0.89967  0.29899  1.0000
  C   C108      1.0  0.94639  0.93059  0.28802  1.0000
  C   C109      1.0  0.88670  0.83929  0.21303  1.0000
  C   C110      1.0  0.86222  0.83761  0.17359  1.0000
  C   C111      1.0  0.85898  0.86132  0.14023  1.0000
  C   C112      1.0  0.87892  0.88803  0.15395  1.0000
  C   C113      1.0  0.98107  0.04851  0.02727  1.0000
  C   C114      1.0  0.95731  0.01707  0.43865  1.0000
  C   C115      1.0  0.99545  0.85758  0.98292  1.0000
  C   C116      1.0  0.97843  0.89610  0.01024  1.0000
  C   C117      1.0  0.44305  0.42318  0.13115  1.0000
  C   C118      1.0  0.46747  0.39143  0.07278  1.0000
  C   C119      1.0  0.46773  0.61148  0.19646  1.0000
  C   C120      1.0  0.46328  0.58312  0.06516  1.0000
  C   C121      1.0  0.59542  0.41311  0.91708  1.0000
  C   C122      1.0  0.59665  0.46323  0.97707  1.0000
  C   C123      1.0  0.57879  0.47823  0.94263  1.0000
  C   C124      1.0  0.56053  0.44380  0.85001  1.0000
  C   C125      1.0  0.55958  0.39399  0.78886  1.0000
  C   C126      1.0  0.57660  0.37921  0.82233  1.0000
  C   C127      1.0  0.61329  0.39841  0.95148  1.0000
  C   C128      1.0  0.63241  0.42923  0.53867  1.0000
  C   C129      1.0  0.63454  0.47810  0.59449  1.0000
  C   C130      1.0  0.61679  0.49568  0.57086  1.0000
  C   C131      1.0  0.57847  0.53328  0.51969  1.0000
  C   C132      1.0  0.59856  0.54692  0.98187  1.0000
  C   C133      1.0  0.59646  0.59901  0.55056  1.0000
  C   C134      1.0  0.57633  0.63163  0.63600  1.0000
  C   C135      1.0  0.55815  0.61618  0.66340  1.0000
  C   C136      1.0  0.55944  0.56713  0.60661  1.0000
  C   C137      1.0  0.61478  0.61368  0.51834  1.0000
  C   C138      1.0  0.63560  0.58029  0.92689  1.0000
  C   C139      1.0  0.63808  0.53271  0.87840  1.0000
  C   C140      1.0  0.62003  0.51634  0.90369  1.0000
  C   C141      1.0  0.39344  0.58510  0.91647  1.0000
  C   C142      1.0  0.39850  0.55958  0.94486  1.0000
  C   C143      1.0  0.41787  0.52090  0.87773  1.0000
  C   C144      1.0  0.43114  0.50858  0.78425  1.0000
  C   C145      1.0  0.42627  0.53444  0.75798  1.0000
  C   C146      1.0  0.40789  0.57178  0.82232  1.0000
  C   C147      1.0  0.37438  0.62328  0.98322  1.0000
  C   C148      1.0  0.35942  0.63698  0.56051  1.0000
  C   C149      1.0  0.36420  0.61169  0.58862  1.0000
  C   C150      1.0  0.38317  0.57530  0.52833  1.0000
  C   C151      1.0  0.42468  0.49470  0.90663  1.0000
  C   C152      1.0  0.40663  0.46072  0.88151  1.0000
  C   C153      1.0  0.41469  0.43131  0.89628  1.0000
  C   C154      1.0  0.44095  0.43417  0.92855  1.0000
  C   C155      1.0  0.45798  0.46722  0.95395  1.0000
  C   C156      1.0  0.44977  0.49881  0.94746  1.0000
  C   C157      1.0  0.39661  0.39934  0.87627  1.0000
  C   C158      1.0  0.37110  0.39448  0.83994  1.0000
  C   C159      1.0  0.36368  0.42140  0.81830  1.0000
  C   C160      1.0  0.38079  0.45325  0.83805  1.0000
  C   C161      1.0  0.50234  0.58755  0.75501  1.0000
  C   C162      1.0  0.53181  0.58440  0.75340  1.0000
  C   C163      1.0  0.50911  0.41220  0.66506  1.0000
  C   C164      1.0  0.51710  0.44500  0.79747  1.0000
  C   C165      1.0  0.27902  0.78612  0.77644  1.0000
  C   C166      1.0  0.26528  0.81517  0.89999  1.0000
  C   C167      1.0  0.28409  0.84103  0.00000  1.0000
  C   C168      1.0  0.29795  0.26811  0.78314  1.0000
  C   C169      1.0  0.31031  0.21653  0.71187  1.0000
  C   C170      1.0  0.31541  0.18683  0.58458  1.0000
  C   C171      1.0  0.70134  0.64002  0.76705  1.0000
  C   C172      1.0  0.69694  0.61117  0.63213  1.0000
  C   C173      1.0  0.70284  0.55789  0.54468  1.0000
  C   C174      1.0  0.71146  0.35668  0.63110  1.0000
  C   C175      1.0  0.71539  0.39348  0.77255  1.0000
  C   C176      1.0  0.69020  0.40162  0.82466  1.0000
  C   C177      1.0  0.19631  0.92887  0.89751  1.0000
  C   C178      1.0  0.20321  0.90190  0.76640  1.0000
  C   C179      1.0  0.19981  0.98308  0.98810  1.0000
  C   C180      1.0  0.24630  0.11318  0.76088  1.0000
  C   C181      1.0  0.23949  0.15553  0.90103  1.0000
  C   C182      1.0  0.25809  0.07023  0.72307  1.0000
  C   C183      1.0  0.79500  0.28673  0.76036  1.0000
  C   C184      1.0  0.79958  0.24260  0.61804  1.0000
  C   C185      1.0  0.81932  0.31316  0.82741  1.0000
  C   C186      1.0  0.76418  0.70890  0.57406  1.0000
  C   C187      1.0  0.77619  0.75625  0.70424  1.0000
  C   C188      1.0  0.74919  0.72430  0.02874  1.0000
  C   C189      1.0  0.10180  0.92858  0.94345  1.0000
  C   C190      1.0  0.10260  0.98163  0.50805  1.0000
  C   C191      1.0  0.08511  0.99318  0.96669  1.0000
  C   C192      1.0  0.06787  0.95740  0.86897  1.0000
  C   C193      1.0  0.06768  0.90734  0.80673  1.0000
  C   C194      1.0  0.08435  0.89336  0.84303  1.0000
  C   C195      1.0  0.11859  0.91526  0.98406  1.0000
  C   C196      1.0  0.13582  0.95386  0.58937  1.0000
  C   C197      1.0  0.13708  0.00273  0.64426  1.0000
  C   C198      1.0  0.12086  0.01626  0.60585  1.0000
  C   C199      1.0  0.02773  0.94528  0.77314  1.0000
  C   C200      1.0  0.02969  0.90620  0.63369  1.0000
  C   C201      1.0  0.90600  0.02671  0.75537  1.0000
  C   C202      1.0  0.90492  0.99731  0.77442  1.0000
  C   C203      1.0  0.92218  0.95585  0.70874  1.0000
  C   C204      1.0  0.93990  0.94455  0.62658  1.0000
  C   C205      1.0  0.94111  0.97391  0.60899  1.0000
  C   C206      1.0  0.92445  0.01393  0.67204  1.0000
  C   C207      1.0  0.88904  0.06813  0.82126  1.0000
  C   C208      1.0  0.87135  0.08191  0.90558  1.0000
  C   C209      1.0  0.87082  0.05325  0.92592  1.0000
  C   C210      1.0  0.88706  0.01268  0.86332  1.0000
  C   C211      1.0  0.08674  0.04578  0.52333  1.0000
  C   C212      1.0  0.10909  0.06190  0.50939  1.0000
  C   C213      1.0  0.10990  0.11132  0.56521  1.0000
  C   C214      1.0  0.08833  0.14347  0.63512  1.0000
  C   C215      1.0  0.06685  0.12792  0.64952  1.0000
  C   C216      1.0  0.06596  0.07895  0.59329  1.0000
  C   C217      1.0  0.13217  0.12703  0.55084  1.0000
  C   C218      1.0  0.15163  0.09873  0.99616  1.0000
  C   C219      1.0  0.15164  0.05059  0.94514  1.0000
  C   C220      1.0  0.13031  0.03266  0.95258  1.0000
  C   C221      1.0  0.00364  0.06836  0.68153  1.0000
  C   C222      1.0  0.02518  0.09645  0.68969  1.0000
  C   C223      1.0  0.92438  0.92724  0.73328  1.0000
  C   C224      1.0  0.90447  0.89495  0.70457  1.0000
  C   C225      1.0  0.90876  0.86882  0.73189  1.0000
  C   C226      1.0  0.93359  0.87163  0.77559  1.0000
  C   C227      1.0  0.95267  0.90237  0.80117  1.0000
  C   C228      1.0  0.94747  0.93193  0.78629  1.0000
  C   C229      1.0  0.88790  0.84235  0.71925  1.0000
  C   C230      1.0  0.86339  0.83977  0.67845  1.0000
  C   C231      1.0  0.86011  0.86194  0.64099  1.0000
  C   C232      1.0  0.87993  0.88841  0.65315  1.0000
  C   C233      1.0  0.98056  0.04864  0.52225  1.0000
  C   C234      1.0  0.95823  0.01824  0.93926  1.0000
  C   C235      1.0  0.99614  0.85974  0.47780  1.0000
  C   C236      1.0  0.97930  0.90010  0.51276  1.0000
  C   C237      1.0  0.44260  0.42129  0.63617  1.0000
  C   C238      1.0  0.46653  0.38867  0.56798  1.0000
  C   C239      1.0  0.46704  0.60896  0.70404  1.0000
  C   C240      1.0  0.46119  0.59166  0.58597  1.0000
  N   N1        1.0  0.29923  0.86153  0.07948  1.0000
  N   N2        1.0  0.31929  0.17097  0.99102  1.0000
  N   N3        1.0  0.66637  0.39327  0.33064  1.0000
  N   N4        1.0  0.70903  0.51611  0.47702  1.0000
  N   N5        1.0  0.20280  0.02601  0.05573  1.0000
  N   N6        1.0  0.26924  0.03366  0.17802  1.0000
  N   N7        1.0  0.83589  0.33384  0.38927  1.0000
  N   N8        1.0  0.74223  0.73634  0.48683  1.0000
  N   N9        1.0  0.30480  0.86905  0.57659  1.0000
  N   N10       1.0  0.31902  0.16331  0.48279  1.0000
  N   N11       1.0  0.66914  0.40585  0.85702  1.0000
  N   N12       1.0  0.71004  0.51668  0.98502  1.0000
  N   N13       1.0  0.20455  0.02120  0.53513  1.0000
  N   N14       1.0  0.26743  0.03625  0.69479  1.0000
  N   N15       1.0  0.83883  0.33458  0.87921  1.0000
  N   N16       1.0  0.73901  0.73912  0.99707  1.0000
  O   O1        1.0  0.45078  0.47447  0.20886  1.0000
  O   O2        1.0  0.49473  0.61408  0.22363  1.0000
  O   O3        1.0  0.53990  0.54445  0.10279  1.0000
  O   O4        1.0  0.46681  0.53880  0.47707  1.0000
  O   O5        1.0  0.48203  0.40072  0.16279  1.0000
  O   O6        1.0  0.54210  0.46603  0.34076  1.0000
  O   O7        1.0  0.05202  0.97409  0.33575  1.0000
  O   O8        1.0  0.95497  0.90173  0.06648  1.0000
  O   O9        1.0  0.04424  0.05868  0.10878  1.0000
  O   O10       1.0  0.96547  0.96548  0.33354  1.0000
  O   O11       1.0  0.00635  0.87559  0.09080  1.0000
  O   O12       1.0  0.98949  0.02834  0.06667  1.0000
  O   O13       1.0  0.45053  0.47279  0.71627  1.0000
  O   O14       1.0  0.49463  0.60880  0.71794  1.0000
  O   O15       1.0  0.54160  0.54983  0.63018  1.0000
  O   O16       1.0  0.46882  0.53002  0.97527  1.0000
  O   O17       1.0  0.48314  0.39494  0.64895  1.0000
  O   O18       1.0  0.54408  0.45957  0.81758  1.0000
  O   O19       1.0  0.05179  0.97255  0.83454  1.0000
  O   O20       1.0  0.95563  0.90374  0.56476  1.0000
  O   O21       1.0  0.04513  0.06144  0.60477  1.0000
  O   O22       1.0  0.96625  0.96699  0.83004  1.0000
  O   O23       1.0  0.00717  0.87433  0.58108  1.0000
  O   O24       1.0  0.99062  0.03064  0.56509  1.0000
  C   C241      1.0  0.33245  0.75083  0.21070  1.0000
  C   C242      1.0  0.30631  0.74995  0.23152  1.0000
  C  Sn1       1.0  0.29700  0.71194  0.21225  1.0000
  C  Sn2       1.0  0.31422  0.67418  0.17140  1.0000
  C   C243      1.0  0.34034  0.67541  0.15091  1.0000
  C   C244      1.0  0.34945  0.71361  0.17046  1.0000
  H   H193      1.0  0.33951  0.78040  0.22588  1.0000
  O  Te1       1.0  0.27082  0.71161  0.23345  1.0000
  O  Te2       1.0  0.30543  0.63577  0.15144  1.0000
  H   H194      1.0  0.36970  0.71430  0.15440  1.0000
  Mg  Mg1       1.0  0.26807  0.65147  0.19314  1.0000
  C   C245      1.0  0.33119  0.32372  0.21047  1.0000
  C   C246      1.0  0.34871  0.36045  0.30532  1.0000
  C  Sn3       1.0  0.35207  0.36922  0.40449  1.0000
  C  Sn4       1.0  0.33759  0.34062  0.40850  1.0000
  C   C247      1.0  0.32012  0.30394  0.31311  1.0000
  C   C248      1.0  0.31691  0.29548  0.21433  1.0000
  H   H195      1.0  0.32871  0.31716  0.13400  1.0000
  O  Te3       1.0  0.36965  0.40607  0.49850  1.0000
  O  Te4       1.0  0.34058  0.34860  0.50651  1.0000
  H   H196      1.0  0.30335  0.26702  0.14086  1.0000
  Mg  Mg2       1.0  0.36691  0.40305  0.61263  1.0000
  C   C249      1.0  0.65966  0.35976  0.07225  1.0000
  C   C250      1.0  0.68639  0.36955  0.08960  1.0000
  C  Sn5       1.0  0.69662  0.40484  0.10060  1.0000
  C  Sn6       1.0  0.67973  0.43075  0.09411  1.0000
  C   C251      1.0  0.65302  0.42071  0.07682  1.0000
  C   C252      1.0  0.64299  0.38532  0.06588  1.0000
  H   H197      1.0  0.65190  0.33240  0.06385  1.0000
  O  Te5       1.0  0.72338  0.41415  0.11786  1.0000
  O  Te6       1.0  0.68944  0.46621  0.10487  1.0000
  H   H198      1.0  0.62229  0.37777  0.05253  1.0000
  Mg  Mg3       1.0  0.72732  0.46585  0.12740  1.0000
  C   C253      1.0  0.69179  0.58533  0.31977  1.0000
  C   C254      1.0  0.68508  0.61219  0.29919  1.0000
  C  Sn7       1.0  0.66030  0.63307  0.32914  1.0000
  C  Sn8       1.0  0.64193  0.62688  0.38068  1.0000
  C   C255      1.0  0.64883  0.59997  0.40100  1.0000
  C   C256      1.0  0.67368  0.57923  0.37064  1.0000
  H   H199      1.0  0.71102  0.56930  0.29635  1.0000
  O  Te7       1.0  0.65392  0.65978  0.30793  1.0000
  O  Te8       1.0  0.61703  0.64737  0.41152  1.0000
  H   H200      1.0  0.67887  0.55846  0.38667  1.0000
  Mg  Mg4       1.0  0.61754  0.68062  0.36522  1.0000
  C   C257      1.0  0.20691  0.84855  0.36740  1.0000
  C   C258      1.0  0.20999  0.89545  0.41670  1.0000
  C  Sn9       1.0  0.23356  0.92149  0.47184  1.0000
  C  Sn10      1.0  0.25441  0.90007  0.47756  1.0000
  C   C259      1.0  0.25114  0.85312  0.42789  1.0000
  C   C260      1.0  0.22747  0.82739  0.37296  1.0000
  H   H201      1.0  0.18861  0.82863  0.32483  1.0000
  O  Te9       1.0  0.23629  0.96832  0.52068  1.0000
  O  Te10      1.0  0.27818  0.92528  0.53211  1.0000
  H   H202      1.0  0.22510  0.79107  0.33472  1.0000
  Mg  Mg5       1.0  0.27243  0.98811  0.58571  1.0000
  C   C261      1.0  0.71080  0.69175  0.11655  1.0000
  C   C262      1.0  0.73755  0.68714  0.09592  1.0000
  C  Sn11      1.0  0.75201  0.65226  0.07660  1.0000
  C  Sn12      1.0  0.73939  0.62148  0.07798  1.0000
  C   C263      1.0  0.71262  0.62636  0.09861  1.0000
  C   C264      1.0  0.69834  0.66139  0.11788  1.0000
  H   H203      1.0  0.69975  0.71883  0.13139  1.0000
  O  Te11      1.0  0.77872  0.64815  0.05617  1.0000
  O  Te12      1.0  0.75337  0.58630  0.05889  1.0000
  H   H204      1.0  0.67763  0.66493  0.13377  1.0000
  Mg  Mg6       1.0  0.78938  0.59471  0.03490  1.0000
  C   C265      1.0  0.76730  0.37790  0.29401  1.0000
  C   C266      1.0  0.74028  0.37228  0.28611  1.0000
  C  Sn13      1.0  0.72892  0.34069  0.28550  1.0000
  C  Sn14      1.0  0.74497  0.31430  0.29297  1.0000
  C   C267      1.0  0.77198  0.32020  0.30093  1.0000
  C   C268      1.0  0.78315  0.35190  0.30143  1.0000
  H   H205      1.0  0.77594  0.40244  0.29447  1.0000
  O  Te13      1.0  0.70189  0.33549  0.27751  1.0000
  O  Te14      1.0  0.73413  0.28250  0.29258  1.0000
  H   H206      1.0  0.80407  0.35627  0.30763  1.0000
  Mg  Mg7       1.0  0.69629  0.28776  0.28021  1.0000
  C   C269      1.0  0.25559  0.16054  0.18646  1.0000
  C   C270      1.0  0.26308  0.13876  0.22017  1.0000
  C  Sn15      1.0  0.28844  0.14507  0.26150  1.0000
  C  Sn16      1.0  0.30660  0.17374  0.26914  1.0000
  C   C271      1.0  0.29890  0.19540  0.23529  1.0000
  C   C272      1.0  0.27348  0.18884  0.19402  1.0000
  H   H207      1.0  0.23591  0.15548  0.15460  1.0000
  O  Te15      1.0  0.29561  0.12304  0.29477  1.0000
  O  Te16      1.0  0.33207  0.18066  0.31018  1.0000
  H   H208      1.0  0.26767  0.20573  0.16801  1.0000
  Mg  Mg8       1.0  0.33255  0.14318  0.34505  1.0000
  C   C273      1.0  0.18506  0.95289  0.17237  1.0000
  C   C274      1.0  0.15937  0.93881  0.12917  1.0000
  C  Sn17      1.0  0.14542  0.90961  0.13060  1.0000
  C  Sn18      1.0  0.15746  0.89429  0.17620  1.0000
  C   C275      1.0  0.18316  0.90860  0.21930  1.0000
  C   C276      1.0  0.19695  0.93781  0.21741  1.0000
  H   H209      1.0  0.19572  0.97551  0.17098  1.0000
  O  Te17      1.0  0.11977  0.89585  0.08705  1.0000
  O  Te18      1.0  0.14397  0.86511  0.17872  1.0000
  H   H210      1.0  0.21683  0.94874  0.25094  1.0000
  Mg  Mg9       1.0  0.10943  0.85585  0.10933  1.0000
  C   C277      1.0  0.81666  0.12875  0.50551  1.0000
  C   C278      1.0  0.84216  0.12103  0.46563  1.0000
  C  Sn19      1.0  0.85901  0.15744  0.48603  1.0000
  C  Sn20      1.0  0.84580  0.20238  0.54756  1.0000
  C   C279      1.0  0.82030  0.20976  0.58718  1.0000
  C   C280      1.0  0.80362  0.17307  0.56625  1.0000
  H   H211      1.0  0.80705  0.10038  0.48938  1.0000
  O  Te19      1.0  0.88449  0.14911  0.44554  1.0000
  O  Te20      1.0  0.85794  0.23939  0.56920  1.0000
  H   H212      1.0  0.78388  0.17907  0.59721  1.0000
  Mg  Mg10      1.0  0.89278  0.21070  0.49653  1.0000
  C   C281      1.0  0.86017  0.17896  0.01466  1.0000
  C   C282      1.0  0.85848  0.44360  0.98498  1.0000
  C  Sn21      1.0  0.83388  0.43285  0.99615  1.0000
  C  Sn22      1.0  0.81061  0.15817  0.03779  1.0000
  C   C283      1.0  0.81462  0.20054  0.06717  1.0000
  C   C284      1.0  0.83933  0.21095  0.05570  1.0000
  H   H213      1.0  0.87928  0.18701  0.00573  1.0000
  O  Te21      1.0  0.83041  0.39028  0.96614  1.0000
  O  Te22      1.0  0.78581  0.14831  0.04975  1.0000
  H   H214      1.0  0.84227  0.24382  0.07861  1.0000
  Mg  Mg11      1.0  0.79296  0.39278  0.99763  1.0000
  C   C285      1.0  0.18803  0.15701  0.43917  1.0000
  C   C286      1.0  0.21440  0.14718  0.43490  1.0000
  C  Sn23      1.0  0.21788  0.11589  0.44125  1.0000
  C  Sn24      1.0  0.19880  0.09409  0.45202  1.0000
  C   C287      1.0  0.17247  0.10413  0.45613  1.0000
  C   C288      1.0  0.16496  0.13551  0.44975  1.0000
  H   H215      1.0  0.18222  0.18126  0.43417  1.0000
  O  Te23      1.0  0.24430  0.10647  0.43690  1.0000
  O  Te24      1.0  0.20598  0.06267  0.45849  1.0000
  H   H216      1.0  0.14879  0.14309  0.45298  1.0000
  Mg  Mg12      1.0  0.24441  0.06116  0.44895  1.0000
  C   C289      1.0  0.84118  0.76567  0.15467  1.0000
  C   C290      1.0  0.84109  0.80183  0.15967  1.0000
  C  Sn25      1.0  0.81825  0.82769  0.18778  1.0000
  C  Sn26      1.0  0.79511  0.81706  0.21130  1.0000
  C   C291      1.0  0.79541  0.78084  0.20616  1.0000
  C   C292      1.0  0.81837  0.75518  0.17791  1.0000
  H   H217      1.0  0.85895  0.74583  0.13288  1.0000
  O  Te25      1.0  0.81849  0.86369  0.19235  1.0000
  O  Te26      1.0  0.77202  0.84236  0.23966  1.0000
  H   H218      1.0  0.81844  0.72721  0.17412  1.0000
  Mg  Mg13      1.0  0.78215  0.88817  0.23485  1.0000
  C   C293      1.0  0.33268  0.75415  0.71432  1.0000
  C   C294      1.0  0.30610  0.75144  0.72584  1.0000
  C  Sn27      1.0  0.29591  0.70995  0.69051  1.0000
  C  Sn28      1.0  0.31269  0.67049  0.64281  1.0000
  C   C295      1.0  0.33926  0.67358  0.63172  1.0000
  C   C296      1.0  0.34925  0.71526  0.66732  1.0000
  H   H219      1.0  0.34041  0.78642  0.74192  1.0000
  O  Te27      1.0  0.26930  0.70783  0.70260  1.0000
  O  Te28      1.0  0.30303  0.62860  0.60684  1.0000
  H   H220      1.0  0.36983  0.71737  0.65846  1.0000
  Mg  Mg14      1.0  0.26537  0.64297  0.64100  1.0000
  C   C297      1.0  0.31864  0.30739  0.70405  1.0000
  C   C298      1.0  0.31675  0.29898  0.77204  1.0000
  C  Sn29      1.0  0.33267  0.32557  0.87528  1.0000
  C  Sn30      1.0  0.35080  0.36122  0.91091  1.0000
  C   C299      1.0  0.35253  0.36938  0.84234  1.0000
  C   C300      1.0  0.33650  0.34255  0.73916  1.0000
  H   H221      1.0  0.30623  0.28665  0.62426  1.0000
  O  Te29      1.0  0.33054  0.31670  0.94214  1.0000
  O  Te30      1.0  0.36481  0.08121  0.01373  1.0000
  H   H222      1.0  0.33796  0.34909  0.68659  1.0000
  Mg  Mg15      1.0  0.35465  0.05585  0.07522  1.0000
  C   C301      1.0  0.68534  0.42667  0.59225  1.0000
  C   C302      1.0  0.65901  0.41367  0.56257  1.0000
  C  Sn31      1.0  0.64791  0.38171  0.56122  1.0000
  C  Sn32      1.0  0.66350  0.36247  0.59019  1.0000
  C   C303      1.0  0.68981  0.37574  0.61985  1.0000
  C   C304      1.0  0.70073  0.40773  0.62088  1.0000
  H   H223      1.0  0.69378  0.45145  0.59312  1.0000
  O  Te31      1.0  0.62158  0.36908  0.53132  1.0000
  O  Te32      1.0  0.65290  0.33047  0.58959  1.0000
  H   H224      1.0  0.72111  0.41782  0.64394  1.0000
  Mg  Mg16      1.0  0.61606  0.32418  0.54293  1.0000
  C   C305      1.0  0.68460  0.57555  0.83263  1.0000
  C   C306      1.0  0.65950  0.59129  0.88084  1.0000
  C  Sn33      1.0  0.64562  0.62238  0.88484  1.0000
  C  Sn34      1.0  0.65712  0.63793  0.83964  1.0000
  C   C307      1.0  0.68223  0.62195  0.79151  1.0000
  C   C308      1.0  0.69595  0.59086  0.78798  1.0000
  H   H225      1.0  0.69521  0.55148  0.82983  1.0000
  O  Te33      1.0  0.62057  0.63777  0.93335  1.0000
  O  Te34      1.0  0.64368  0.66898  0.84249  1.0000
  H   H226      1.0  0.71538  0.57865  0.75058  1.0000
  Mg  Mg17      1.0  0.61006  0.68001  0.91740  1.0000
  C   C309      1.0  0.20592  0.84727  0.85787  1.0000
  C   C310      1.0  0.20903  0.89588  0.91661  1.0000
  C  Sn35      1.0  0.23213  0.92244  0.97976  1.0000
  C  Sn36      1.0  0.25247  0.89982  0.98398  1.0000
  C   C311      1.0  0.24917  0.85116  0.92484  1.0000
  C   C312      1.0  0.22597  0.82492  0.86195  1.0000
  H   H227      1.0  0.18798  0.82695  0.80915  1.0000
  O  Te35      1.0  0.23278  0.66387  0.03798  1.0000
  O  Te36      1.0  0.27363  0.61840  0.04641  1.0000
  H   H228      1.0  0.22358  0.78727  0.81641  1.0000
  Mg  Mg18      1.0  0.26815  0.68371  0.11140  1.0000
  C   C313      1.0  0.71267  0.69191  0.61299  1.0000
  C   C314      1.0  0.73946  0.68738  0.59329  1.0000
  C  Sn37      1.0  0.75384  0.65278  0.57530  1.0000
  C  Sn38      1.0  0.74111  0.62221  0.57708  1.0000
  C   C315      1.0  0.71429  0.62701  0.59678  1.0000
  C   C316      1.0  0.70009  0.66176  0.61472  1.0000
  H   H229      1.0  0.70168  0.71878  0.62681  1.0000
  O  Te37      1.0  0.78060  0.64875  0.55578  1.0000
  O  Te38      1.0  0.75501  0.58731  0.55931  1.0000
  H   H230      1.0  0.67934  0.66524  0.62989  1.0000
  Mg  Mg19      1.0  0.79112  0.59572  0.53619  1.0000
  C   C317      1.0  0.77958  0.36128  0.77822  1.0000
  C   C318      1.0  0.77719  0.33239  0.79548  1.0000
  C  Sn39      1.0  0.75263  0.32187  0.80758  1.0000
  C  Sn40      1.0  0.73008  0.34065  0.80225  1.0000
  C   C319      1.0  0.73267  0.36948  0.78487  1.0000
  C   C320      1.0  0.75734  0.37980  0.77290  1.0000
  H   H231      1.0  0.79866  0.36925  0.76889  1.0000
  O  Te39      1.0  0.75059  0.29296  0.82481  1.0000
  O  Te40      1.0  0.70529  0.33068  0.81404  1.0000
  H   H232      1.0  0.75919  0.40214  0.75947  1.0000
  Mg  Mg20      1.0  0.71256  0.28954  0.83610  1.0000
  C   C321      1.0  0.25732  0.16852  0.67107  1.0000
  C   C322      1.0  0.28287  0.18630  0.71039  1.0000
  C  Sn41      1.0  0.29776  0.17606  0.76100  1.0000
  C  Sn42      1.0  0.28681  0.14748  0.77232  1.0000
  C   C323      1.0  0.26123  0.12983  0.73264  1.0000
  C   C324      1.0  0.24650  0.14030  0.68216  1.0000
  H   H233      1.0  0.24593  0.17659  0.63195  1.0000
  O  Te41      1.0  0.32326  0.19413  0.79986  1.0000
  O  Te42      1.0  0.30126  0.13668  0.82254  1.0000
  H   H234      1.0  0.22672  0.12650  0.65165  1.0000
  Mg  Mg21      1.0  0.33516  0.16959  0.86230  1.0000
  C   C325      1.0  0.18557  0.95756  0.67786  1.0000
  C   C326      1.0  0.15974  0.94356  0.63686  1.0000
  C  Sn43      1.0  0.14597  0.91577  0.64313  1.0000
  C  Sn44      1.0  0.15833  0.90180  0.69142  1.0000
  C   C327      1.0  0.18417  0.91602  0.73228  1.0000
  C   C328      1.0  0.19777  0.94382  0.72555  1.0000
  H   H235      1.0  0.19609  0.97909  0.67272  1.0000
  O  Te43      1.0  0.12018  0.90207  0.60172  1.0000
  O  Te44      1.0  0.14502  0.87404  0.69878  1.0000
  H   H236      1.0  0.21776  0.95468  0.75738  1.0000
  Mg  Mg22      1.0  0.11018  0.86427  0.63070  1.0000
  C   C329      1.0  0.18038  0.15776  0.94138  1.0000
  C   C330      1.0  0.20688  0.14911  0.93891  1.0000
  C  Sn45      1.0  0.21511  0.11946  0.94969  1.0000
  C  Sn46      1.0  0.19642  0.09812  0.96315  1.0000
  C   C331      1.0  0.16996  0.10698  0.96543  1.0000
  C   C332      1.0  0.16193  0.13671  0.95461  1.0000
  H   H237      1.0  0.17417  0.18075  0.93294  1.0000
  O  Te45      1.0  0.24166  0.11121  0.94709  1.0000
  O  Te46      1.0  0.20411  0.06833  0.97407  1.0000
  H   H238      1.0  0.14142  0.14338  0.95644  1.0000
  Mg  Mg23      1.0  0.24252  0.06797  0.96538  1.0000
  C   C333      1.0  0.80863  0.83480  0.70386  1.0000
  C   C334      1.0  0.83515  0.82439  0.69286  1.0000
  C  Sn47      1.0  0.84369  0.78697  0.67741  1.0000
  C  Sn48      1.0  0.82527  0.75951  0.67288  1.0000
  C   C335      1.0  0.79877  0.77018  0.68388  1.0000
  C   C336      1.0  0.79045  0.80772  0.69935  1.0000
  H   H239      1.0  0.80218  0.86382  0.71576  1.0000
  O  Te47      1.0  0.87026  0.77707  0.66662  1.0000
  O  Te48      1.0  0.83327  0.72190  0.65747  1.0000
  H   H240      1.0  0.76991  0.81574  0.70778  1.0000
  Mg  Mg24      1.0  0.87159  0.72225  0.64705  1.0000
