data_image0
_chemical_formula_structural       H192C240N16O24C2Sn2C2HTe2HMgC2Sn2C2HTe2HMgC2Sn2C2HTe2HMgC2Sn2C2HTe2HMgC2Sn2C2HTe2HMgC2Sn2C2HTe2HMgC2Sn2C2HTe2HMgC2Sn2C2HTe2HMgC2Sn2C2HTe2HMgC2Sn2C2HTe2HMgC2Sn2C2HTe2HMgC2Sn2C2HTe2HMgC2Sn2C2HTe2HMgC2Sn2C2HTe2HMgC2Sn2C2HTe2HMgC2Sn2C2HTe2HMgC2Sn2C2HTe2HMgC2Sn2C2HTe2HMgC2Sn2C2HTe2HMgC2Sn2C2HTe2HMgC2Sn2C2HTe2HMgC2Sn2C2HTe2HMgC2Sn2C2HTe2HMgC2Sn2C2HTe2HMgC2Sn2C2HTe2HMgC2Sn2C2HTe2HMgC2Sn2C2HTe2HMgC2Sn2C2HTe2HMgC2Sn2C2HTe2HMgC2Sn2C2HTe2HMgC2Sn2C2HTe2HMgC2Sn2C2HTe2HMg
_chemical_formula_sum              "H256 C368 N16 O24 Sn64 Te64 Mg32"
_cell_length_a       50.5977
_cell_length_b       51.1447
_cell_length_c       18.2972
_cell_angle_alpha    145.526
_cell_angle_beta     87.0153
_cell_angle_gamma    91.1806

_symmetry_space_group_name_H-M    'P1'
_space_group_IT_number       1

loop_
  _space_group_symop_operation_xyz
  'x, y, z'

loop_
  _atom_site_type_symbol
  _atom_site_label
  _atom_site_symmetry_multiplicity
  _atom_site_fract_x
  _atom_site_fract_y
  _atom_site_fract_z
  _atom_site_occupancy
  H   H1        1.0  0.11791  0.05447  0.31138  1.0000
  H   H2        1.0  0.07526  0.18985  0.47164  1.0000
  H   H3        1.0  0.05129  0.16564  0.53027  1.0000
  H   H4        1.0  0.10455  0.16948  0.31483  1.0000
  H   H5        1.0  0.13857  0.03176  0.47255  1.0000
  H   H6        1.0  0.11563  0.00846  0.03612  1.0000
  H   H7        1.0  0.01692  0.02464  0.29970  1.0000
  H   H8        1.0  0.98866  0.06297  0.40175  1.0000
  H   H9        1.0  0.02536  0.11005  0.53061  1.0000
  H   H10       1.0  0.01832  0.12313  0.46823  1.0000
  H   H11       1.0  0.17161  0.18209  0.02876  1.0000
  H   H12       1.0  0.19725  0.14179  0.45470  1.0000
  H   H13       1.0  0.14630  0.12588  0.33876  1.0000
  H   H14       1.0  0.46332  0.44442  0.32925  1.0000
  H   H15       1.0  0.46336  0.40592  0.31649  1.0000
  H   H16       1.0  0.50819  0.40677  0.26650  1.0000
  H   H17       1.0  0.50659  0.43512  0.41856  1.0000
  H   H18       1.0  0.49367  0.49044  0.21490  1.0000
  H   H19       1.0  0.49378  0.51775  0.19069  1.0000
  H   H20       1.0  0.47757  0.59262  0.43597  1.0000
  H   H21       1.0  0.46624  0.55443  0.41756  1.0000
  H   H22       1.0  0.57499  0.40891  0.37587  1.0000
  H   H23       1.0  0.59452  0.37288  0.40266  1.0000
  H   H24       1.0  0.61682  0.38159  0.03320  1.0000
  H   H25       1.0  0.65291  0.50961  0.37509  1.0000
  H   H26       1.0  0.63252  0.54661  0.35559  1.0000
  H   H27       1.0  0.58463  0.68872  0.05119  1.0000
  H   H28       1.0  0.56583  0.65220  0.07813  1.0000
  H   H29       1.0  0.60970  0.68606  0.42720  1.0000
  H   H30       1.0  0.65073  0.55848  0.06975  1.0000
  H   H31       1.0  0.63212  0.51983  0.08999  1.0000
  H   H32       1.0  0.47049  0.51968  0.48406  1.0000
  H   H33       1.0  0.44012  0.58584  0.08772  1.0000
  H   H34       1.0  0.39858  0.63242  0.20297  1.0000
  H   H35       1.0  0.34555  0.62346  0.37264  1.0000
  H   H36       1.0  0.37492  0.56366  0.28722  1.0000
  H   H37       1.0  0.40637  0.45075  0.23159  1.0000
  H   H38       1.0  0.44085  0.50632  0.33487  1.0000
  H   H39       1.0  0.36926  0.40619  0.08774  1.0000
  H   H40       1.0  0.34901  0.41264  0.37155  1.0000
  H   H41       1.0  0.38359  0.46907  0.47694  1.0000
  H   H42       1.0  0.53404  0.50998  0.33226  1.0000
  H   H43       1.0  0.51053  0.55618  0.46020  1.0000
  H   H44       1.0  0.55241  0.57741  0.03557  1.0000
  H   H45       1.0  0.54201  0.61284  0.53820  1.0000
  H   H46       1.0  0.54453  0.50582  0.45022  1.0000
  H   H47       1.0  0.54825  0.44773  0.34559  1.0000
  H   H48       1.0  0.53693  0.47686  0.04520  1.0000
  H   H49       1.0  0.53552  0.53383  0.14139  1.0000
  H   H50       1.0  0.31076  0.77774  0.43749  1.0000
  H   H51       1.0  0.28749  0.73421  0.33974  1.0000
  H   H52       1.0  0.26473  0.76823  0.53008  1.0000
  H   H53       1.0  0.25901  0.29525  0.33564  1.0000
  H   H54       1.0  0.25500  0.28325  0.21488  1.0000
  H   H55       1.0  0.29943  0.23045  0.16533  1.0000
  H   H56       1.0  0.66466  0.73703  0.21910  1.0000
  H   H57       1.0  0.69577  0.71106  0.17855  1.0000
  H   H58       1.0  0.65094  0.66549  0.99612  1.0000
  H   H59       1.0  0.67793  0.32722  0.20852  1.0000
  H   H60       1.0  0.70513  0.36266  0.27142  1.0000
  H   H61       1.0  0.65348  0.38806  0.41902  1.0000
  H   H62       1.0  0.97464  0.10271  0.37241  1.0000
  H   H63       1.0  0.95866  0.05224  0.28799  1.0000
  H   H64       1.0  0.98509  0.06795  0.17131  1.0000
  H   H65       1.0  0.95025  0.06920  0.19691  1.0000
  H   H66       1.0  0.88523  0.11479  0.09824  1.0000
  H   H67       1.0  0.86786  0.11379  0.32873  1.0000
  H   H68       1.0  0.89585  0.04279  0.17640  1.0000
  H   H69       1.0  0.82292  0.32250  0.17042  1.0000
  H   H70       1.0  0.80960  0.29677  0.03470  1.0000
  H   H71       1.0  0.77795  0.26121  0.06852  1.0000
  H   H72       1.0  0.04653  0.91317  0.38390  1.0000
  H   H73       1.0  0.07154  0.88417  0.42059  1.0000
  H   H74       1.0  0.10438  0.89493  0.03685  1.0000
  H   H75       1.0  0.14587  0.02190  0.32935  1.0000
  H   H76       1.0  0.01664  0.96334  0.46349  1.0000
  H   H77       1.0  0.01537  0.00721  0.99434  1.0000
  H   H78       1.0  0.18316  0.86271  0.23390  1.0000
  H   H79       1.0  0.21192  0.87440  0.20629  1.0000
  H   H80       1.0  0.18141  0.94832  0.47180  1.0000
  H   H81       1.0  0.96230  0.93023  0.14500  1.0000
  H   H82       1.0  0.97181  0.88663  0.10721  1.0000
  H   H83       1.0  0.99226  0.98267  0.34555  1.0000
  H   H84       1.0  0.00748  0.94558  0.19070  1.0000
  H   H85       1.0  0.94224  0.98678  0.25856  1.0000
  H   H86       1.0  0.91376  0.05662  0.41067  1.0000
  H   H87       1.0  0.94548  0.90655  0.00122  1.0000
  H   H88       1.0  0.97800  0.95974  0.06165  1.0000
  H   H89       1.0  0.90013  0.87702  0.44602  1.0000
  H   H90       1.0  0.84362  0.91146  0.36443  1.0000
  H   H91       1.0  0.87617  0.95946  0.40874  1.0000
  H   H92       1.0  0.04443  0.95571  0.29166  1.0000
  H   H93       1.0  0.04655  0.91248  0.26043  1.0000
  H   H94       1.0  0.80473  0.76469  0.32696  1.0000
  H   H95       1.0  0.78586  0.81676  0.45814  1.0000
  H   H96       1.0  0.75883  0.79584  0.30420  1.0000
  H   H97       1.0  0.11646  0.05650  0.81964  1.0000
  H   H98       1.0  0.07324  0.18869  0.96404  1.0000
  H   H99       1.0  0.05092  0.16530  0.02716  1.0000
  H   H100      1.0  0.10237  0.16868  0.80777  1.0000
  H   H101      1.0  0.14069  0.03229  0.98022  1.0000
  H   H102      1.0  0.11436  0.00771  0.52910  1.0000
  H   H103      1.0  0.01959  0.02170  0.78998  1.0000
  H   H104      1.0  0.99060  0.05797  0.89081  1.0000
  H   H105      1.0  0.02530  0.10854  0.02675  1.0000
  H   H106      1.0  0.01881  0.12053  0.96116  1.0000
  H   H107      1.0  0.17237  0.18387  0.53248  1.0000
  H   H108      1.0  0.19684  0.14042  0.95052  1.0000
  H   H109      1.0  0.14537  0.12390  0.83594  1.0000
  H   H110      1.0  0.46188  0.44683  0.83417  1.0000
  H   H111      1.0  0.46116  0.40784  0.81943  1.0000
  H   H112      1.0  0.50637  0.40566  0.76343  1.0000
  H   H113      1.0  0.50547  0.43543  0.91745  1.0000
  H   H114      1.0  0.49229  0.49678  0.71156  1.0000
  H   H115      1.0  0.49152  0.53183  0.71261  1.0000
  H   H116      1.0  0.47326  0.59863  0.95130  1.0000
  H   H117      1.0  0.46498  0.55574  0.91835  1.0000
  H   H118      1.0  0.57081  0.41237  0.88672  1.0000
  H   H119      1.0  0.59085  0.37531  0.90920  1.0000
  H   H120      1.0  0.61917  0.38079  0.53289  1.0000
  H   H121      1.0  0.65333  0.51045  0.87904  1.0000
  H   H122      1.0  0.63192  0.54685  0.85906  1.0000
  H   H123      1.0  0.58549  0.69157  0.56042  1.0000
  H   H124      1.0  0.56789  0.65467  0.58783  1.0000
  H   H125      1.0  0.61010  0.68284  0.91928  1.0000
  H   H126      1.0  0.65250  0.55548  0.56692  1.0000
  H   H127      1.0  0.63397  0.51792  0.59034  1.0000
  H   H128      1.0  0.46899  0.52210  0.98947  1.0000
  H   H129      1.0  0.44189  0.58292  0.57812  1.0000
  H   H130      1.0  0.40063  0.62938  0.68992  1.0000
  H   H131      1.0  0.34699  0.62441  0.86847  1.0000
  H   H132      1.0  0.37569  0.56429  0.78458  1.0000
  H   H133      1.0  0.40373  0.45279  0.73450  1.0000
  H   H134      1.0  0.43654  0.51211  0.84983  1.0000
  H   H135      1.0  0.36888  0.40488  0.57936  1.0000
  H   H136      1.0  0.34756  0.41522  0.88469  1.0000
  H   H137      1.0  0.38241  0.47080  0.98587  1.0000
  H   H138      1.0  0.53083  0.51010  0.81957  1.0000
  H   H139      1.0  0.50887  0.55660  0.95760  1.0000
  H   H140      1.0  0.55332  0.58335  0.54926  1.0000
  H   H141      1.0  0.54255  0.61293  0.04335  1.0000
  H   H142      1.0  0.54412  0.50421  0.94554  1.0000
  H   H143      1.0  0.54770  0.44674  0.84548  1.0000
  H   H144      1.0  0.53911  0.47557  0.54219  1.0000
  H   H145      1.0  0.53890  0.53326  0.64295  1.0000
  H   H146      1.0  0.31399  0.78086  0.94204  1.0000
  H   H147      1.0  0.29081  0.73725  0.84056  1.0000
  H   H148      1.0  0.26758  0.76858  0.02634  1.0000
  H   H149      1.0  0.25672  0.30049  0.85042  1.0000
  H   H150      1.0  0.25341  0.28755  0.72742  1.0000
  H   H151      1.0  0.29761  0.23693  0.68712  1.0000
  H   H152      1.0  0.66701  0.74367  0.74806  1.0000
  H   H153      1.0  0.69667  0.71046  0.68146  1.0000
  H   H154      1.0  0.64746  0.68254  0.53849  1.0000
  H   H155      1.0  0.67847  0.32836  0.71405  1.0000
  H   H156      1.0  0.70618  0.36260  0.77406  1.0000
  H   H157      1.0  0.65483  0.39066  0.92791  1.0000
  H   H158      1.0  0.97612  0.10044  0.86870  1.0000
  H   H159      1.0  0.96006  0.05008  0.78468  1.0000
  H   H160      1.0  0.98546  0.06600  0.66743  1.0000
  H   H161      1.0  0.95080  0.06826  0.69742  1.0000
  H   H162      1.0  0.88426  0.11674  0.60636  1.0000
  H   H163      1.0  0.86653  0.11549  0.83590  1.0000
  H   H164      1.0  0.89424  0.04422  0.68325  1.0000
  H   H165      1.0  0.82255  0.31943  0.65879  1.0000
  H   H166      1.0  0.80989  0.29337  0.52164  1.0000
  H   H167      1.0  0.77775  0.25685  0.55047  1.0000
  H   H168      1.0  0.04503  0.91473  0.88834  1.0000
  H   H169      1.0  0.07007  0.88463  0.92180  1.0000
  H   H170      1.0  0.10578  0.89510  0.53590  1.0000
  H   H171      1.0  0.14431  0.02493  0.84059  1.0000
  H   H172      1.0  0.01586  0.96341  0.95990  1.0000
  H   H173      1.0  0.01557  0.00600  0.49361  1.0000
  H   H174      1.0  0.18484  0.86632  0.74299  1.0000
  H   H175      1.0  0.21332  0.87849  0.71588  1.0000
  H   H176      1.0  0.18239  0.95171  0.98024  1.0000
  H   H177      1.0  0.96425  0.92891  0.63954  1.0000
  H   H178      1.0  0.97439  0.88608  0.60421  1.0000
  H   H179      1.0  0.99193  0.98317  0.84965  1.0000
  H   H180      1.0  0.00789  0.95027  0.70038  1.0000
  H   H181      1.0  0.94257  0.98354  0.74768  1.0000
  H   H182      1.0  0.91445  0.05373  0.89995  1.0000
  H   H183      1.0  0.94471  0.90471  0.49696  1.0000
  H   H184      1.0  0.97778  0.95636  0.55295  1.0000
  H   H185      1.0  0.90124  0.87741  0.94600  1.0000
  H   H186      1.0  0.84517  0.90837  0.85360  1.0000
  H   H187      1.0  0.87764  0.95612  0.89662  1.0000
  H   H188      1.0  0.04579  0.95959  0.79941  1.0000
  H   H189      1.0  0.04845  0.91590  0.76618  1.0000
  H   H190      1.0  0.80696  0.76270  0.82237  1.0000
  H   H191      1.0  0.78889  0.81539  0.95780  1.0000
  H   H192      1.0  0.76061  0.79738  0.81198  1.0000
  C   C1        1.0  0.47039  0.43919  0.37240  1.0000
  C   C2        1.0  0.50036  0.43789  0.36837  1.0000
  C   C3        1.0  0.49483  0.52396  0.26394  1.0000
  C   C4        1.0  0.47156  0.55718  0.36519  1.0000
  C   C5        1.0  0.60842  0.43797  0.08953  1.0000
  C   C6        1.0  0.61212  0.48592  0.18405  1.0000
  C   C7        1.0  0.59889  0.50755  0.17502  1.0000
  C   C8        1.0  0.58446  0.48040  0.06746  1.0000
  C   C9        1.0  0.58512  0.42952  0.46212  1.0000
  C   C10       1.0  0.59328  0.41188  0.98215  1.0000
  C   C11       1.0  0.61994  0.41793  0.10542  1.0000
  C   C12       1.0  0.63549  0.44305  0.20797  1.0000
  C   C13       1.0  0.64020  0.48976  0.29631  1.0000
  C   C14       1.0  0.62874  0.51072  0.28595  1.0000
  C   C15       1.0  0.59766  0.55859  0.28323  1.0000
  C   C16       1.0  0.60948  0.58045  0.27091  1.0000
  C   C17       1.0  0.60407  0.62880  0.36974  1.0000
  C   C18       1.0  0.58888  0.65461  0.48346  1.0000
  C   C19       1.0  0.57885  0.63380  0.49822  1.0000
  C   C20       1.0  0.58268  0.58548  0.39689  1.0000
  C   C21       1.0  0.61434  0.64956  0.35245  1.0000
  C   C22       1.0  0.63073  0.62484  0.24509  1.0000
  C   C23       1.0  0.63730  0.57774  0.15227  1.0000
  C   C24       1.0  0.62681  0.55596  0.16315  1.0000
  C   C25       1.0  0.41070  0.58339  0.17189  1.0000
  C   C26       1.0  0.40391  0.56241  0.19289  1.0000
  C   C27       1.0  0.42070  0.52620  0.13683  1.0000
  C   C28       1.0  0.44313  0.51137  0.06038  1.0000
  C   C29       1.0  0.45039  0.53310  0.04333  1.0000
  C   C30       1.0  0.43452  0.56848  0.09869  1.0000
  C   C31       1.0  0.39351  0.61795  0.22321  1.0000
  C   C32       1.0  0.36995  0.63215  0.29301  1.0000
  C   C33       1.0  0.36363  0.61177  0.31524  1.0000
  C   C34       1.0  0.38009  0.57841  0.26798  1.0000
  C   C35       1.0  0.41566  0.50506  0.16150  1.0000
  C   C36       1.0  0.39590  0.47191  0.09878  1.0000
  C   C37       1.0  0.39207  0.45239  0.12569  1.0000
  C   C38       1.0  0.40895  0.46556  0.21124  1.0000
  C   C39       1.0  0.42838  0.49692  0.26951  1.0000
  C   C40       1.0  0.43149  0.51737  0.24656  1.0000
  C   C41       1.0  0.37183  0.42059  0.06616  1.0000
  C   C42       1.0  0.35608  0.40503  0.46957  1.0000
  C   C43       1.0  0.36113  0.42317  0.43981  1.0000
  C   C44       1.0  0.38040  0.45487  0.49886  1.0000
  C   C45       1.0  0.52724  0.54492  0.39626  1.0000
  C   C46       1.0  0.54893  0.57929  0.48202  1.0000
  C   C47       1.0  0.53826  0.48136  0.43662  1.0000
  C   C48       1.0  0.54424  0.49886  0.05096  1.0000
  C   C49       1.0  0.29883  0.75627  0.42537  1.0000
  C   C50       1.0  0.28061  0.79035  0.04224  1.0000
  C   C51       1.0  0.29303  0.82158  0.16364  1.0000
  C   C52       1.0  0.26950  0.28257  0.25595  1.0000
  C   C53       1.0  0.27864  0.23087  0.15114  1.0000
  C   C54       1.0  0.27815  0.20377  0.02132  1.0000
  C   C55       1.0  0.67467  0.70436  0.15909  1.0000
  C   C56       1.0  0.67212  0.66946  0.01393  1.0000
  C   C57       1.0  0.67567  0.63092  0.43797  1.0000
  C   C58       1.0  0.68343  0.36290  0.27922  1.0000
  C   C59       1.0  0.67476  0.39255  0.41726  1.0000
  C   C60       1.0  0.68050  0.44228  0.01841  1.0000
  C   C61       1.0  0.96939  0.92409  0.18574  1.0000
  C   C62       1.0  0.99585  0.94625  0.24515  1.0000
  C   C63       1.0  0.97470  0.06464  0.27924  1.0000
  C   C64       1.0  0.96959  0.05359  0.17469  1.0000
  C   C65       1.0  0.09166  0.94689  0.07944  1.0000
  C   C66       1.0  0.09497  0.99326  0.16033  1.0000
  C   C67       1.0  0.07924  0.01125  0.14558  1.0000
  C   C68       1.0  0.06235  0.98233  0.04443  1.0000
  C   C69       1.0  0.06009  0.93553  0.46114  1.0000
  C   C70       1.0  0.07411  0.91928  0.48181  1.0000
  C   C71       1.0  0.10729  0.92988  0.09740  1.0000
  C   C72       1.0  0.12656  0.95637  0.18737  1.0000
  C   C73       1.0  0.13042  0.00122  0.26132  1.0000
  C   C74       1.0  0.11479  0.01967  0.25123  1.0000
  C   C75       1.0  0.07987  0.06068  0.23769  1.0000
  C   C76       1.0  0.09516  0.07485  0.20744  1.0000
  C   C77       1.0  0.09287  0.12173  0.29028  1.0000
  C   C78       1.0  0.07665  0.15401  0.40690  1.0000
  C   C79       1.0  0.06301  0.14047  0.43896  1.0000
  C   C80       1.0  0.06427  0.09355  0.35325  1.0000
  C   C81       1.0  0.10680  0.13408  0.25284  1.0000
  C   C82       1.0  0.12342  0.10241  0.14094  1.0000
  C   C83       1.0  0.12700  0.05706  0.06535  1.0000
  C   C84       1.0  0.11297  0.04348  0.09620  1.0000
  C   C85       1.0  0.90330  0.05807  0.02573  1.0000
  C   C86       1.0  0.90655  0.03677  0.04666  1.0000
  C   C87       1.0  0.92195  0.99775  0.46527  1.0000
  C   C88       1.0  0.93516  0.97935  0.35960  1.0000
  C   C89       1.0  0.93228  0.00111  0.34097  1.0000
  C   C90       1.0  0.91614  0.04035  0.42618  1.0000
  C   C91       1.0  0.88702  0.09876  0.11474  1.0000
  C   C92       1.0  0.87409  0.11920  0.22319  1.0000
  C   C93       1.0  0.87791  0.09835  0.24455  1.0000
  C   C94       1.0  0.89348  0.05851  0.15924  1.0000
  C   C95       1.0  0.92656  0.97457  0.48284  1.0000
  C   C96       1.0  0.90722  0.94659  0.45460  1.0000
  C   C97       1.0  0.91395  0.92176  0.46220  1.0000
  C   C98       1.0  0.93971  0.92503  0.49602  1.0000
  C   C99       1.0  0.95846  0.95480  0.03006  1.0000
  C   C100      1.0  0.95170  0.97865  0.02067  1.0000
  C   C101      1.0  0.89486  0.89445  0.43598  1.0000
  C   C102      1.0  0.86957  0.89089  0.40294  1.0000
  C   C103      1.0  0.86318  0.91503  0.39362  1.0000
  C   C104      1.0  0.88140  0.94173  0.41779  1.0000
  C   C105      1.0  0.00653  0.05523  0.34824  1.0000
  C   C106      1.0  0.02502  0.09565  0.44187  1.0000
  C   C107      1.0  0.03387  0.94077  0.30528  1.0000
  C   C108      1.0  0.02785  0.97756  0.44924  1.0000
  C   C109      1.0  0.81191  0.29287  0.08467  1.0000
  C   C110      1.0  0.78306  0.29605  0.13027  1.0000
  C   C111      1.0  0.78314  0.32524  0.26257  1.0000
  C   C112      1.0  0.79402  0.79173  0.35925  1.0000
  C   C113      1.0  0.76950  0.76946  0.27530  1.0000
  C   C114      1.0  0.77780  0.73192  0.13830  1.0000
  C   C115      1.0  0.17582  0.14743  0.46331  1.0000
  C   C116      1.0  0.16743  0.11813  0.32962  1.0000
  C   C117      1.0  0.16965  0.06917  0.23516  1.0000
  C   C118      1.0  0.19320  0.88994  0.26556  1.0000
  C   C119      1.0  0.19970  0.92779  0.40946  1.0000
  C   C120      1.0  0.21791  0.96072  0.45220  1.0000
  C   C121      1.0  0.46906  0.44063  0.87480  1.0000
  C   C122      1.0  0.49905  0.43755  0.86580  1.0000
  C   C123      1.0  0.49269  0.53264  0.77419  1.0000
  C   C124      1.0  0.46891  0.56204  0.87424  1.0000
  C   C125      1.0  0.61000  0.43678  0.58825  1.0000
  C   C126      1.0  0.61276  0.48501  0.68416  1.0000
  C   C127      1.0  0.59968  0.50573  0.67211  1.0000
  C   C128      1.0  0.58663  0.47766  0.56057  1.0000
  C   C129      1.0  0.58196  0.43243  0.97011  1.0000
  C   C130      1.0  0.59609  0.40970  0.47693  1.0000
  C   C131      1.0  0.62166  0.41733  0.60577  1.0000
  C   C132      1.0  0.63682  0.44318  0.71008  1.0000
  C   C133      1.0  0.64076  0.49018  0.79944  1.0000
  C   C134      1.0  0.62878  0.51072  0.78860  1.0000
  C   C135      1.0  0.59780  0.55656  0.77941  1.0000
  C   C136      1.0  0.61010  0.57811  0.76687  1.0000
  C   C137      1.0  0.60431  0.62612  0.86351  1.0000
  C   C138      1.0  0.58827  0.65192  0.97546  1.0000
  C   C139      1.0  0.57763  0.63132  0.99021  1.0000
  C   C140      1.0  0.58185  0.58321  0.89077  1.0000
  C   C141      1.0  0.61489  0.64646  0.84542  1.0000
  C   C142      1.0  0.63163  0.62159  0.73863  1.0000
  C   C143      1.0  0.63868  0.57494  0.64857  1.0000
  C   C144      1.0  0.62817  0.55364  0.66098  1.0000
  C   C145      1.0  0.41212  0.58153  0.66365  1.0000
  C   C146      1.0  0.40490  0.56150  0.68713  1.0000
  C   C147      1.0  0.42121  0.52514  0.63184  1.0000
  C   C148      1.0  0.44381  0.50958  0.55506  1.0000
  C   C149      1.0  0.45168  0.53080  0.53692  1.0000
  C   C150      1.0  0.43606  0.56602  0.59037  1.0000
  C   C151      1.0  0.39523  0.61594  0.71302  1.0000
  C   C152      1.0  0.37171  0.63108  0.78424  1.0000
  C   C153      1.0  0.36503  0.61178  0.80958  1.0000
  C   C154      1.0  0.38111  0.57836  0.76341  1.0000
  C   C155      1.0  0.41530  0.50483  0.65846  1.0000
  C   C156      1.0  0.39597  0.47086  0.59240  1.0000
  C   C157      1.0  0.39157  0.45184  0.62050  1.0000
  C   C158      1.0  0.40705  0.46704  0.71268  1.0000
  C   C159      1.0  0.42558  0.50024  0.77704  1.0000
  C   C160      1.0  0.42947  0.51962  0.75104  1.0000
  C   C161      1.0  0.37170  0.41923  0.55769  1.0000
  C   C162      1.0  0.35558  0.40714  0.98077  1.0000
  C   C163      1.0  0.36020  0.42539  0.95118  1.0000
  C   C164      1.0  0.37955  0.45673  0.00826  1.0000
  C   C165      1.0  0.52507  0.54665  0.89431  1.0000
  C   C166      1.0  0.54803  0.57747  0.97747  1.0000
  C   C167      1.0  0.53732  0.48042  0.93387  1.0000
  C   C168      1.0  0.54655  0.49786  0.54916  1.0000
  C   C169      1.0  0.30189  0.75855  0.92621  1.0000
  C   C170      1.0  0.27788  0.78916  0.54305  1.0000
  C   C171      1.0  0.29086  0.82076  0.66346  1.0000
  C   C172      1.0  0.26756  0.28749  0.77076  1.0000
  C   C173      1.0  0.27711  0.23624  0.66819  1.0000
  C   C174      1.0  0.27811  0.20931  0.53828  1.0000
  C   C175      1.0  0.67511  0.70837  0.67443  1.0000
  C   C176      1.0  0.66895  0.67983  0.53921  1.0000
  C   C177      1.0  0.68318  0.62403  0.92896  1.0000
  C   C178      1.0  0.68447  0.36376  0.78398  1.0000
  C   C179      1.0  0.67624  0.39368  0.92265  1.0000
  C   C180      1.0  0.67753  0.44153  0.51365  1.0000
  C   C181      1.0  0.97102  0.92334  0.68203  1.0000
  C   C182      1.0  0.99671  0.94782  0.74798  1.0000
  C   C183      1.0  0.97591  0.06243  0.77519  1.0000
  C   C184      1.0  0.97009  0.05198  0.67232  1.0000
  C   C185      1.0  0.09242  0.94720  0.57999  1.0000
  C   C186      1.0  0.09510  0.99380  0.66174  1.0000
  C   C187      1.0  0.07963  0.01102  0.64400  1.0000
  C   C188      1.0  0.06335  0.98122  0.54030  1.0000
  C   C189      1.0  0.05881  0.93659  0.96454  1.0000
  C   C190      1.0  0.07291  0.91973  0.98333  1.0000
  C   C191      1.0  0.10813  0.93048  0.59862  1.0000
  C   C192      1.0  0.12680  0.95775  0.69154  1.0000
  C   C193      1.0  0.12964  0.00327  0.76870  1.0000
  C   C194      1.0  0.11404  0.02120  0.75688  1.0000
  C   C195      1.0  0.07979  0.06034  0.73516  1.0000
  C   C196      1.0  0.09416  0.07421  0.70233  1.0000
  C   C197      1.0  0.09133  0.12087  0.78397  1.0000
  C   C198      1.0  0.07521  0.15311  0.90086  1.0000
  C   C199      1.0  0.06251  0.13997  0.93544  1.0000
  C   C200      1.0  0.06457  0.09334  0.85178  1.0000
  C   C201      1.0  0.10482  0.13336  0.74620  1.0000
  C   C202      1.0  0.12150  0.10189  0.63465  1.0000
  C   C203      1.0  0.12517  0.05650  0.55861  1.0000
  C   C204      1.0  0.11160  0.04280  0.58985  1.0000
  C   C205      1.0  0.90232  0.06010  0.53416  1.0000
  C   C206      1.0  0.90548  0.03856  0.55442  1.0000
  C   C207      1.0  0.92295  0.99592  0.95775  1.0000
  C   C208      1.0  0.93595  0.97710  0.85121  1.0000
  C   C209      1.0  0.93287  0.99843  0.83135  1.0000
  C   C210      1.0  0.91689  0.03783  0.91659  1.0000
  C   C211      1.0  0.88600  0.10071  0.62286  1.0000
  C   C212      1.0  0.87305  0.12116  0.73120  1.0000
  C   C213      1.0  0.87670  0.10007  0.75192  1.0000
  C   C214      1.0  0.89220  0.06012  0.66650  1.0000
  C   C215      1.0  0.92753  0.97348  0.97757  1.0000
  C   C216      1.0  0.90838  0.94514  0.94837  1.0000
  C   C217      1.0  0.91504  0.92141  0.95954  1.0000
  C   C218      1.0  0.94051  0.92623  0.99817  1.0000
  C   C219      1.0  0.95794  0.95296  0.52602  1.0000
  C   C220      1.0  0.95117  0.97797  0.52036  1.0000
  C   C221      1.0  0.89603  0.89397  0.93316  1.0000
  C   C222      1.0  0.87089  0.88942  0.89730  1.0000
  C   C223      1.0  0.86459  0.91260  0.88481  1.0000
  C   C224      1.0  0.88277  0.93919  0.90831  1.0000
  C   C225      1.0  0.00830  0.05198  0.83992  1.0000
  C   C226      1.0  0.02581  0.09378  0.93729  1.0000
  C   C227      1.0  0.03525  0.94343  0.80917  1.0000
  C   C228      1.0  0.02768  0.97905  0.95129  1.0000
  C   C229      1.0  0.81191  0.28951  0.57185  1.0000
  C   C230      1.0  0.78287  0.29200  0.61459  1.0000
  C   C231      1.0  0.78231  0.32011  0.74580  1.0000
  C   C232      1.0  0.79632  0.79056  0.85814  1.0000
  C   C233      1.0  0.77120  0.76996  0.77873  1.0000
  C   C234      1.0  0.77873  0.73332  0.64142  1.0000
  C   C235      1.0  0.17532  0.14574  0.95984  1.0000
  C   C236      1.0  0.16657  0.11632  0.82639  1.0000
  C   C237      1.0  0.16903  0.06723  0.73069  1.0000
  C   C238      1.0  0.19457  0.89373  0.77470  1.0000
  C   C239      1.0  0.20088  0.93189  0.91895  1.0000
  C   C240      1.0  0.21851  0.96572  0.96387  1.0000
  N   N1        1.0  0.30317  0.84686  0.26038  1.0000
  N   N2        1.0  0.27876  0.18945  0.43683  1.0000
  N   N3        1.0  0.68517  0.48017  0.08941  1.0000
  N   N4        1.0  0.68204  0.59253  0.36084  1.0000
  N   N5        1.0  0.78458  0.34904  0.36846  1.0000
  N   N6        1.0  0.78481  0.70166  0.02915  1.0000
  N   N7        1.0  0.23268  0.99246  0.99855  1.0000
  N   N8        1.0  0.17126  0.03076  0.16561  1.0000
  N   N9        1.0  0.30171  0.84626  0.75871  1.0000
  N   N10       1.0  0.27755  0.18335  0.91935  1.0000
  N   N11       1.0  0.68006  0.48002  0.58541  1.0000
  N   N12       1.0  0.69341  0.58923  0.86624  1.0000
  N   N13       1.0  0.78303  0.34303  0.85093  1.0000
  N   N14       1.0  0.78504  0.70365  0.53180  1.0000
  N   N15       1.0  0.23249  0.98644  0.48357  1.0000
  N   N16       1.0  0.17081  0.02853  0.65891  1.0000
  O   O1        1.0  0.45891  0.47626  0.00734  1.0000
  O   O2        1.0  0.51969  0.54452  0.32087  1.0000
  O   O3        1.0  0.57291  0.56274  0.40547  1.0000
  O   O4        1.0  0.44897  0.55160  0.30913  1.0000
  O   O5        1.0  0.51006  0.47870  0.42792  1.0000
  O   O6        1.0  0.57271  0.50098  0.05586  1.0000
  O   O7        1.0  0.94966  0.93890  0.27562  1.0000
  O   O8        1.0  0.99947  0.04345  0.24862  1.0000
  O   O9        1.0  0.05159  0.07876  0.38287  1.0000
  O   O10       1.0  0.97084  0.00479  0.04581  1.0000
  O   O11       1.0  0.00977  0.92033  0.23898  1.0000
  O   O12       1.0  0.05017  0.00110  0.02880  1.0000
  O   O13       1.0  0.45899  0.47420  0.50268  1.0000
  O   O14       1.0  0.51717  0.55320  0.83588  1.0000
  O   O15       1.0  0.57163  0.56026  0.89817  1.0000
  O   O16       1.0  0.44577  0.55577  0.81921  1.0000
  O   O17       1.0  0.50926  0.47731  0.92092  1.0000
  O   O18       1.0  0.57517  0.49700  0.54457  1.0000
  O   O19       1.0  0.95047  0.93664  0.76705  1.0000
  O   O20       1.0  0.00073  0.04076  0.74191  1.0000
  O   O21       1.0  0.05291  0.07938  0.88530  1.0000
  O   O22       1.0  0.97060  0.00331  0.54293  1.0000
  O   O23       1.0  0.01196  0.92124  0.73665  1.0000
  O   O24       1.0  0.05137  0.99867  0.52032  1.0000
  C   C241      1.0  0.23762  0.79448  0.95259  1.0000
  C   C242      1.0  0.27225  0.51461  0.02230  1.0000
  C  Sn1       1.0  0.28419  0.55553  0.09531  1.0000
  C  Sn2       1.0  0.27393  0.58206  0.09842  1.0000
  C   C243      1.0  0.25197  0.56698  0.02841  1.0000
  C   C244      1.0  0.22748  0.82064  0.95565  1.0000
  H   H193      1.0  0.22849  0.76277  0.89634  1.0000
  O  Te1       1.0  0.30610  0.56980  0.16435  1.0000
  O  Te2       1.0  0.28548  0.62311  0.17062  1.0000
  H   H194      1.0  0.21049  0.80921  0.90175  1.0000
  Mg  Mg1       1.0  0.31497  0.62816  0.24845  1.0000
  C   C245      1.0  0.22897  0.80144  0.43740  1.0000
  C   C246      1.0  0.23399  0.84231  0.49357  1.0000
  C  Sn3       1.0  0.25456  0.86987  0.57660  1.0000
  C  Sn4       1.0  0.27037  0.85617  0.60368  1.0000
  C   C247      1.0  0.26520  0.81521  0.54693  1.0000
  C   C248      1.0  0.24456  0.78789  0.46403  1.0000
  H   H195      1.0  0.21301  0.78029  0.37320  1.0000
  O  Te3       1.0  0.25930  0.91060  0.63193  1.0000
  O  Te4       1.0  0.29107  0.88307  0.68628  1.0000
  H   H196      1.0  0.24069  0.75624  0.42049  1.0000
  Mg  Mg2       1.0  0.28977  0.93562  0.73822  1.0000
  C   C249      1.0  0.68002  0.33802  0.42393  1.0000
  C   C250      1.0  0.68645  0.37053  0.44498  1.0000
  C  Sn5       1.0  0.71062  0.39228  0.49496  1.0000
  C  Sn6       1.0  0.72864  0.38121  0.52428  1.0000
  C   C251      1.0  0.72203  0.34862  0.50278  1.0000
  C   C252      1.0  0.69779  0.32707  0.45278  1.0000
  H   H197      1.0  0.66128  0.32132  0.38517  1.0000
  O  Te5       1.0  0.71673  0.42469  0.51544  1.0000
  O  Te6       1.0  0.75293  0.40242  0.57427  1.0000
  H   H198      1.0  0.69283  0.30188  0.43641  1.0000
  Mg  Mg3       1.0  0.75226  0.44431  0.58531  1.0000
  C   C253      1.0  0.72953  0.38888  0.03390  1.0000
  C   C254      1.0  0.72171  0.36007  0.02530  1.0000
  C  Sn7       1.0  0.68493  0.63279  0.97415  1.0000
  C  Sn8       1.0  0.66841  0.63987  0.93084  1.0000
  C   C255      1.0  0.67641  0.66874  0.93977  1.0000
  C   C256      1.0  0.70056  0.69054  0.99116  1.0000
  H   H199      1.0  0.74822  0.40573  0.07359  1.0000
  O  Te7       1.0  0.67742  0.60413  0.96630  1.0000
  O  Te8       1.0  0.64423  0.61835  0.87927  1.0000
  H   H200      1.0  0.70661  0.71282  0.99773  1.0000
  Mg  Mg4       1.0  0.64265  0.58248  0.88874  1.0000
  C   C257      1.0  0.72423  0.69437  0.44468  1.0000
  C   C258      1.0  0.71408  0.71592  0.43284  1.0000
  C  Sn9       1.0  0.68736  0.73008  0.46562  1.0000
  C  Sn10      1.0  0.67053  0.72249  0.51110  1.0000
  C   C259      1.0  0.68087  0.70093  0.52268  1.0000
  C   C260      1.0  0.70764  0.68689  0.48957  1.0000
  H   H201      1.0  0.74494  0.68352  0.41913  1.0000
  O  Te9       1.0  0.67755  0.75154  0.45317  1.0000
  O  Te10      1.0  0.64375  0.73631  0.54459  1.0000
  H   H202      1.0  0.71549  0.67023  0.49883  1.0000
  Mg  Mg5       1.0  0.63967  0.76414  0.51091  1.0000
  C   C261      1.0  0.71877  0.67453  0.92650  1.0000
  C   C262      1.0  0.69297  0.68454  0.97767  1.0000
  C  Sn11      1.0  0.67531  0.71102  0.99816  1.0000
  C  Sn12      1.0  0.68369  0.72774  0.96671  1.0000
  C   C263      1.0  0.70954  0.71751  0.91547  1.0000
  C   C264      1.0  0.72705  0.69099  0.89540  1.0000
  H   H203      1.0  0.73232  0.65399  0.91090  1.0000
  O  Te11      1.0  0.66230  0.42605  0.04941  1.0000
  O  Te12      1.0  0.66644  0.75428  0.98616  1.0000
  H   H204      1.0  0.74702  0.68322  0.85570  1.0000
  Mg  Mg6       1.0  0.64609  0.46361  0.05836  1.0000
  C   C265      1.0  0.21979  0.20080  0.18687  1.0000
  C   C266      1.0  0.22831  0.18164  0.20794  1.0000
  C  Sn13      1.0  0.25528  0.17865  0.21425  1.0000
  C  Sn14      1.0  0.27400  0.19518  0.19918  1.0000
  C   C267      1.0  0.26527  0.21432  0.17823  1.0000
  C   C268      1.0  0.23824  0.21713  0.17204  1.0000
  H   H205      1.0  0.19887  0.20300  0.18215  1.0000
  O  Te13      1.0  0.26346  0.15939  0.23533  1.0000
  O  Te14      1.0  0.30107  0.19263  0.20511  1.0000
  H   H206      1.0  0.23164  0.23200  0.15581  1.0000
  Mg  Mg7       1.0  0.30248  0.16350  0.23566  1.0000
  C   C269      1.0  0.31709  0.66622  0.34333  1.0000
  C   C270      1.0  0.34477  0.66365  0.33384  1.0000
  C  Sn15      1.0  0.35906  0.69613  0.36827  1.0000
  C  Sn16      1.0  0.34533  0.73182  0.41304  1.0000
  C   C271      1.0  0.31764  0.73412  0.42228  1.0000
  C   C272      1.0  0.30354  0.70143  0.38753  1.0000
  H   H207      1.0  0.30618  0.64095  0.31652  1.0000
  O  Te15      1.0  0.38670  0.69304  0.35815  1.0000
  O  Te16      1.0  0.35912  0.76475  0.44814  1.0000
  H   H208      1.0  0.28211  0.70345  0.39497  1.0000
  Mg  Mg8       1.0  0.39667  0.74600  0.41744  1.0000
  C   C273      1.0  0.31094  0.31597  0.23108  1.0000
  C   C274      1.0  0.29578  0.31112  0.28532  1.0000
  C  Sn17      1.0  0.29931  0.34025  0.41172  1.0000
  C  Sn18      1.0  0.31839  0.37484  0.48496  1.0000
  C   C275      1.0  0.33345  0.37943  0.42986  1.0000
  C   C276      1.0  0.32975  0.35009  0.30327  1.0000
  H   H209      1.0  0.30807  0.29328  0.13316  1.0000
  O  Te17      1.0  0.28400  0.33492  0.46441  1.0000
  O  Te18      1.0  0.32232  0.40443  0.61153  1.0000
  H   H210      1.0  0.34149  0.35386  0.26134  1.0000
  Mg  Mg9       1.0  0.29664  0.38358  0.64075  1.0000
  C   C277      1.0  0.68447  0.42289  0.29135  1.0000
  C   C278      1.0  0.67376  0.39248  0.27313  1.0000
  C  Sn19      1.0  0.64896  0.37430  0.22220  1.0000
  C  Sn20      1.0  0.63467  0.38685  0.18896  1.0000
  C   C279      1.0  0.64557  0.41727  0.20747  1.0000
  C   C280      1.0  0.67039  0.43527  0.25854  1.0000
  H   H211      1.0  0.70368  0.43680  0.33080  1.0000
  O  Te19      1.0  0.63855  0.34397  0.20467  1.0000
  O  Te20      1.0  0.60986  0.36917  0.13784  1.0000
  H   H212      1.0  0.67869  0.45879  0.27256  1.0000
  Mg  Mg10      1.0  0.60400  0.32906  0.13192  1.0000
  C   C281      1.0  0.67965  0.64839  0.15963  1.0000
  C   C282      1.0  0.66713  0.67677  0.17441  1.0000
  C  Sn21      1.0  0.64087  0.69247  0.22432  1.0000
  C  Sn22      1.0  0.62695  0.67949  0.26003  1.0000
  C   C283      1.0  0.63965  0.65112  0.24496  1.0000
  C   C284      1.0  0.66593  0.63558  0.19488  1.0000
  H   H213      1.0  0.69998  0.63639  0.12096  1.0000
  O  Te21      1.0  0.62867  0.72079  0.23840  1.0000
  O  Te22      1.0  0.60070  0.69471  0.31020  1.0000
  H   H214      1.0  0.67562  0.61364  0.18353  1.0000
  Mg  Mg11      1.0  0.59262  0.73270  0.31111  1.0000
  C   C285      1.0  0.75246  0.37402  0.18402  1.0000
  C   C286      1.0  0.73765  0.34642  0.07657  1.0000
  C  Sn23      1.0  0.72174  0.59457  0.98667  1.0000
  C  Sn24      1.0  0.74626  0.28077  0.00496  1.0000
  C   C287      1.0  0.76102  0.30868  0.11281  1.0000
  C   C288      1.0  0.76413  0.35518  0.20215  1.0000
  H   H215      1.0  0.75485  0.41001  0.25319  1.0000
  O  Te23      1.0  0.70689  0.56748  0.87984  1.0000
  O  Te24      1.0  0.73066  0.52905  0.91663  1.0000
  H   H216      1.0  0.77558  0.37655  0.28538  1.0000
  Mg  Mg12      1.0  0.70859  0.50613  0.78631  1.0000
  C   C289      1.0  0.74139  0.27536  0.47683  1.0000
  C   C290      1.0  0.75988  0.30020  0.57044  1.0000
  C  Sn25      1.0  0.76392  0.34642  0.65916  1.0000
  C  Sn26      1.0  0.74914  0.36807  0.65386  1.0000
  C   C291      1.0  0.73068  0.34292  0.55991  1.0000
  C   C292      1.0  0.72680  0.29669  0.47157  1.0000
  H   H217      1.0  0.73837  0.23960  0.40852  1.0000
  O  Te25      1.0  0.78248  0.37073  0.75203  1.0000
  O  Te26      1.0  0.75278  0.41422  0.74139  1.0000
  H   H218      1.0  0.71247  0.27747  0.39916  1.0000
  Mg  Mg13      1.0  0.78037  0.43288  0.85013  1.0000
  C   C293      1.0  0.24304  0.89709  0.42938  1.0000
  C   C294      1.0  0.21719  0.90264  0.41925  1.0000
  C  Sn27      1.0  0.19573  0.89115  0.43946  1.0000
  C  Sn28      1.0  0.20029  0.87379  0.47042  1.0000
  C   C295      1.0  0.22623  0.86839  0.48043  1.0000
  C   C296      1.0  0.24756  0.87999  0.45996  1.0000
  H   H219      1.0  0.25954  0.90608  0.41362  1.0000
  O  Te27      1.0  0.17003  0.89689  0.42891  1.0000
  O  Te28      1.0  0.17920  0.86205  0.49116  1.0000
  H   H220      1.0  0.26757  0.87571  0.46790  1.0000
  Mg  Mg14      1.0  0.14779  0.87602  0.46584  1.0000
  C   C297      1.0  0.22268  0.11562  0.19113  1.0000
  C   C298      1.0  0.21763  0.15213  0.22737  1.0000
  C  Sn29      1.0  0.19499  0.18096  0.30528  1.0000
  C  Sn30      1.0  0.17712  0.17300  0.34758  1.0000
  C   C299      1.0  0.18237  0.13640  0.31087  1.0000
  C   C300      1.0  0.20507  0.10776  0.23285  1.0000
  H   H221      1.0  0.24026  0.09347  0.13082  1.0000
  O  Te29      1.0  0.19024  0.21727  0.34056  1.0000
  O  Te30      1.0  0.15435  0.20129  0.42556  1.0000
  H   H222      1.0  0.20899  0.07951  0.20487  1.0000
  Mg  Mg15      1.0  0.15651  0.24632  0.44797  1.0000
  C   C301      1.0  0.74743  0.69769  0.25991  1.0000
  C   C302      1.0  0.72915  0.72537  0.36557  1.0000
  C  Sn31      1.0  0.72069  0.76861  0.43945  1.0000
  C  Sn32      1.0  0.73074  0.78435  0.40668  1.0000
  C   C303      1.0  0.74901  0.75639  0.30073  1.0000
  C   C304      1.0  0.75735  0.71318  0.22749  1.0000
  H   H223      1.0  0.75388  0.66425  0.20318  1.0000
  O  Te31      1.0  0.70242  0.79583  0.54474  1.0000
  O  Te32      1.0  0.72261  0.82742  0.47885  1.0000
  H   H224      1.0  0.77150  0.69175  0.14563  1.0000
  Mg  Mg16      1.0  0.69738  0.85193  0.61356  1.0000
  C   C305      1.0  0.83003  0.19734  0.31570  1.0000
  C   C306      1.0  0.82590  0.23565  0.45023  1.0000
  C  Sn33      1.0  0.83878  0.23756  0.52021  1.0000
  C  Sn34      1.0  0.85611  0.20038  0.45402  1.0000
  C   C307      1.0  0.86013  0.16222  0.31943  1.0000
  C   C308      1.0  0.84713  0.16066  0.25035  1.0000
  H   H225      1.0  0.81998  0.19614  0.26225  1.0000
  O  Te33      1.0  0.83442  0.27610  0.65457  1.0000
  O  Te34      1.0  0.86925  0.20140  0.52159  1.0000
  H   H226      1.0  0.85034  0.13100  0.14621  1.0000
  Mg  Mg17      1.0  0.85687  0.26143  0.70386  1.0000
  C   C309      1.0  0.84624  0.23427  0.03738  1.0000
  C   C310      1.0  0.83126  0.24801  0.01019  1.0000
  C  Sn35      1.0  0.81482  0.51179  0.88215  1.0000
  C  Sn36      1.0  0.82630  0.46633  0.77964  1.0000
  C   C311      1.0  0.84123  0.45292  0.80786  1.0000
  C   C312      1.0  0.84487  0.48410  0.93633  1.0000
  H   H227      1.0  0.84904  0.25839  0.13677  1.0000
  O  Te35      1.0  0.79981  0.52609  0.85670  1.0000
  O  Te36      1.0  0.82286  0.43476  0.65080  1.0000
  H   H228      1.0  0.85645  0.47345  0.95735  1.0000
  Mg  Mg18      1.0  0.80076  0.47052  0.66527  1.0000
  C   C313      1.0  0.80673  0.86678  0.43249  1.0000
  C   C314      1.0  0.80985  0.82393  0.36803  1.0000
  C  Sn37      1.0  0.83451  0.80035  0.31069  1.0000
  C  Sn38      1.0  0.85643  0.82014  0.31822  1.0000
  C   C315      1.0  0.85312  0.86304  0.38301  1.0000
  C   C316      1.0  0.82835  0.88633  0.44000  1.0000
  H   H229      1.0  0.78757  0.88482  0.47665  1.0000
  O  Te37      1.0  0.83727  0.75755  0.24663  1.0000
  O  Te38      1.0  0.88130  0.79732  0.26181  1.0000
  H   H230      1.0  0.82595  0.91953  0.48997  1.0000
  Mg  Mg19      1.0  0.87513  0.73981  0.18511  1.0000
  C   C317      1.0  0.14250  0.89708  0.21494  1.0000
  C   C318      1.0  0.16961  0.90217  0.23357  1.0000
  C  Sn39      1.0  0.18398  0.92924  0.24606  1.0000
  C  Sn40      1.0  0.17092  0.95160  0.23978  1.0000
  C   C319      1.0  0.14379  0.94632  0.22122  1.0000
  C   C320      1.0  0.12960  0.91914  0.20879  1.0000
  H   H231      1.0  0.13151  0.87608  0.20540  1.0000
  O  Te39      1.0  0.21106  0.93394  0.26457  1.0000
  O  Te40      1.0  0.18481  0.97887  0.25202  1.0000
  H   H232      1.0  0.10861  0.91523  0.19446  1.0000
  Mg  Mg20      1.0  0.22142  0.97472  0.27589  1.0000
  C   C321      1.0  0.12977  0.15226  0.07836  1.0000
  C   C322      1.0  0.15587  0.14253  0.03008  1.0000
  C  Sn41      1.0  0.17300  0.11567  0.00984  1.0000
  C  Sn42      1.0  0.16377  0.09827  0.03852  1.0000
  C   C323      1.0  0.13762  0.10817  0.08669  1.0000
  C   C324      1.0  0.12064  0.13509  0.10663  1.0000
  H   H233      1.0  0.11663  0.17306  0.09372  1.0000
  O  Te41      1.0  0.18632  0.40096  0.96159  1.0000
  O  Te42      1.0  0.18047  0.07132  0.01915  1.0000
  H   H234      1.0  0.10043  0.14259  0.14393  1.0000
  Mg  Mg21      1.0  0.20155  0.36266  0.95163  1.0000
  C   C325      1.0  0.14990  0.15241  0.57408  1.0000
  C   C326      1.0  0.17632  0.14351  0.53002  1.0000
  C  Sn43      1.0  0.19315  0.11695  0.51177  1.0000
  C  Sn44      1.0  0.18327  0.09900  0.53818  1.0000
  C   C327      1.0  0.15680  0.10807  0.58213  1.0000
  C   C328      1.0  0.14014  0.13471  0.60010  1.0000
  H   H235      1.0  0.13700  0.17300  0.58791  1.0000
  O  Te43      1.0  0.21950  0.10841  0.46774  1.0000
  O  Te44      1.0  0.19965  0.07233  0.52073  1.0000
  H   H236      1.0  0.11967  0.14157  0.63413  1.0000
  Mg  Mg22      1.0  0.23408  0.07019  0.45902  1.0000
  C   C329      1.0  0.23891  0.20413  0.69727  1.0000
  C   C330      1.0  0.24751  0.18300  0.71228  1.0000
  C  Sn45      1.0  0.27450  0.17939  0.71673  1.0000
  C  Sn46      1.0  0.29317  0.19731  0.70598  1.0000
  C   C331      1.0  0.26354  0.21841  0.69109  1.0000
  C   C332      1.0  0.23649  0.22182  0.68671  1.0000
  H   H237      1.0  0.19716  0.20680  0.69395  1.0000
  O  Te45      1.0  0.28275  0.15817  0.73172  1.0000
  O  Te46      1.0  0.32026  0.19418  0.71018  1.0000
  H   H238      1.0  0.22984  0.23821  0.67518  1.0000
  Mg  Mg23      1.0  0.32177  0.16220  0.73192  1.0000
  C   C333      1.0  0.31026  0.68036  0.84323  1.0000
  C   C334      1.0  0.31619  0.72084  0.89853  1.0000
  C  Sn47      1.0  0.34245  0.73348  0.91644  1.0000
  C  Sn48      1.0  0.36313  0.70497  0.87815  1.0000
  C   C335      1.0  0.35700  0.66452  0.82283  1.0000
  C   C336      1.0  0.33065  0.65221  0.80539  1.0000
  H   H239      1.0  0.28988  0.67082  0.82967  1.0000
  O  Te47      1.0  0.34802  0.77405  0.97189  1.0000
  O  Te48      1.0  0.38956  0.71677  0.89490  1.0000
  H   H240      1.0  0.32607  0.62085  0.76249  1.0000
  Mg  Mg24      1.0  0.38714  0.77545  0.97482  1.0000
  C   C337      1.0  0.32624  0.08042  0.00345  1.0000
  C   C338      1.0  0.33113  0.37560  0.94316  1.0000
  C  Sn49      1.0  0.32751  0.34684  0.81721  1.0000
  C  Sn50      1.0  0.30588  0.31706  0.75063  1.0000
  C   C339      1.0  0.28839  0.31683  0.81183  1.0000
  C   C340      1.0  0.29220  0.34574  0.93787  1.0000
  H   H241      1.0  0.32918  0.10281  0.10100  1.0000
  O  Te49      1.0  0.34527  0.34777  0.75839  1.0000
  O  Te50      1.0  0.30179  0.28797  0.62470  1.0000
  H   H242      1.0  0.27858  0.34536  0.98456  1.0000
  Mg  Mg25      1.0  0.33137  0.30172  0.58559  1.0000
  C   C341      1.0  0.64138  0.37108  0.70133  1.0000
  C   C342      1.0  0.66669  0.37646  0.73885  1.0000
  C  Sn51      1.0  0.68357  0.40808  0.77808  1.0000
  C  Sn52      1.0  0.67488  0.43476  0.77971  1.0000
  C   C343      1.0  0.64951  0.42915  0.74208  1.0000
  C   C344      1.0  0.63279  0.39740  0.70295  1.0000
  H   H243      1.0  0.62844  0.34654  0.67112  1.0000
  O  Te51      1.0  0.70880  0.41301  0.81521  1.0000
  O  Te52      1.0  0.69133  0.46662  0.81853  1.0000
  H   H244      1.0  0.61319  0.39326  0.67399  1.0000
  Mg  Mg26      1.0  0.72397  0.46090  0.86040  1.0000
  C   C345      1.0  0.67966  0.64543  0.65105  1.0000
  C   C346      1.0  0.66722  0.67632  0.67508  1.0000
  C  Sn53      1.0  0.64130  0.69291  0.72988  1.0000
  C  Sn54      1.0  0.62762  0.67824  0.76112  1.0000
  C   C347      1.0  0.64025  0.64734  0.73678  1.0000
  C   C348      1.0  0.66619  0.63095  0.68188  1.0000
  H   H245      1.0  0.69974  0.63276  0.60863  1.0000
  O  Te53      1.0  0.62916  0.72375  0.75320  1.0000
  O  Te54      1.0  0.60171  0.69429  0.81601  1.0000
  H   H246      1.0  0.67582  0.60705  0.66336  1.0000
  Mg  Mg27      1.0  0.59361  0.73590  0.82943  1.0000
  C   C349      1.0  0.19757  0.87678  0.96701  1.0000
  C   C350      1.0  0.22360  0.86803  0.96661  1.0000
  C  Sn55      1.0  0.24481  0.88280  0.95581  1.0000
  C  Sn56      1.0  0.23981  0.90677  0.94527  1.0000
  C   C351      1.0  0.21369  0.91539  0.94586  1.0000
  C   C352      1.0  0.19262  0.90044  0.95667  1.0000
  H   H247      1.0  0.18126  0.86524  0.97545  1.0000
  O  Te55      1.0  0.27070  0.87375  0.95553  1.0000
  O  Te56      1.0  0.26064  0.92194  0.93441  1.0000
  H   H248      1.0  0.17247  0.90725  0.95706  1.0000
  Mg  Mg28      1.0  0.29245  0.90134  0.93854  1.0000
  C   C353      1.0  0.24227  0.11520  0.68968  1.0000
  C   C354      1.0  0.23696  0.15203  0.72747  1.0000
  C  Sn57      1.0  0.21417  0.18038  0.80500  1.0000
  C  Sn58      1.0  0.19640  0.17161  0.84531  1.0000
  C   C355      1.0  0.20190  0.13469  0.80706  1.0000
  C   C356      1.0  0.22476  0.10653  0.72944  1.0000
  H   H249      1.0  0.25997  0.09342  0.62968  1.0000
  O  Te57      1.0  0.20916  0.21702  0.84184  1.0000
  O  Te58      1.0  0.17348  0.19941  0.92286  1.0000
  H   H250      1.0  0.22887  0.07804  0.70027  1.0000
  Mg  Mg29      1.0  0.17530  0.24516  0.94791  1.0000
  C   C357      1.0  0.75662  0.70161  0.73167  1.0000
  C   C358      1.0  0.75368  0.74115  0.77969  1.0000
  C  Sn59      1.0  0.73611  0.77730  0.88608  1.0000
  C  Sn60      1.0  0.72123  0.77371  0.94532  1.0000
  C   C359      1.0  0.72432  0.73402  0.89661  1.0000
  C   C360      1.0  0.74196  0.69805  0.79008  1.0000
  H   H251      1.0  0.77027  0.67378  0.64929  1.0000
  O  Te59      1.0  0.73341  0.81656  0.93279  1.0000
  O  Te60      1.0  0.71622  0.51467  0.05181  1.0000
  H   H252      1.0  0.74424  0.66745  0.75298  1.0000
  Mg  Mg30      1.0  0.71946  0.56121  0.08012  1.0000
  C   C361      1.0  0.85786  0.81141  0.80822  1.0000
  C   C362      1.0  0.85340  0.85033  0.85440  1.0000
  C  Sn61      1.0  0.82855  0.87327  0.90987  1.0000
  C  Sn62      1.0  0.80783  0.85687  0.91918  1.0000
  C   C363      1.0  0.81250  0.81792  0.87277  1.0000
  C   C364      1.0  0.83743  0.79522  0.81740  1.0000
  H   H253      1.0  0.87716  0.79385  0.76544  1.0000
  O  Te61      1.0  0.82443  0.91210  0.95548  1.0000
  O  Te62      1.0  0.78281  0.87915  0.97422  1.0000
  H   H254      1.0  0.84089  0.76510  0.78173  1.0000
  Mg  Mg31      1.0  0.79960  0.63599  0.02254  1.0000
  C   C365      1.0  0.14402  0.89728  0.71436  1.0000
  C   C366      1.0  0.17088  0.90452  0.73882  1.0000
  C  Sn63      1.0  0.18458  0.93345  0.75694  1.0000
  C  Sn64      1.0  0.17110  0.95550  0.75044  1.0000
  C   C367      1.0  0.14423  0.94806  0.72601  1.0000
  C   C368      1.0  0.13071  0.91903  0.70798  1.0000
  H   H255      1.0  0.13356  0.87485  0.70047  1.0000
  O  Te63      1.0  0.21141  0.94028  0.78125  1.0000
  O  Te64      1.0  0.18431  0.98459  0.76823  1.0000
  H   H256      1.0  0.10991  0.91346  0.68912  1.0000
  Mg  Mg32      1.0  0.22082  0.98303  0.79885  1.0000
