data_image0
_chemical_formula_structural       H208C328N32SnCSn2CSnTe4Mg2SnCSn2CSnTe4Mg2SnCSn2CSnTe4Mg2SnCSn2CSnTe4Mg2SnCSn2CSnTe4Mg2SnCSn2CSnTe4Mg2SnCSn2CSnTe4Mg2SnCSn2CSnTe4Mg2SnCSn2CSnTe4Mg2SnCSn2CSnTe4Mg2SnCSn2CSnTe4Mg2SnCSn2CSnTe4Mg2SnCSn2CSnTe4Mg2SnCSn2CSnTe4Mg2SnCSn2CSnTe4Mg2SnCSn2CSnTe4Mg2SnCSn2CSnTe4Mg2SnCSn2CSnTe4Mg2SnCSn2CSnTe4Mg2SnCSn2CSnTe4Mg2SnCSn2CSnTe4Mg2SnCSn2CSnTe4Mg2SnCSn2CSnTe4Mg2SnCSn2CSnTe4Mg2SnCSn2CSnTe4Mg2SnCSn2CSnTe4Mg2SnCSn2CSnTe4Mg2SnCSn2CSnTe4Mg2SnCSn2CSnTe4Mg2SnCSn2CSnTe4Mg2SnCSn2CSnTe4Mg2SnCSn2CSnTe4Mg2SnCSn2CSnTe4Mg2SnCSn2CSnTe4Mg2SnCSn2CSnTe4Mg2SnCSn2CSnTe4Mg2SnCSn2CSnTe4Mg2SnCSn2CSnTe4Mg2SnCSn2CSnTe4Mg2SnCSn2CSnTe4Mg2
_chemical_formula_sum              "H208 C408 N32 Sn160 Te160 Mg80"
_cell_length_a       23.4382
_cell_length_b       45.2713
_cell_length_c       18.4254
_cell_angle_alpha    90.1041
_cell_angle_beta     116.362
_cell_angle_gamma    90.2363

_symmetry_space_group_name_H-M    'P1'
_space_group_IT_number       1

loop_
  _space_group_symop_operation_xyz
  'x, y, z'

loop_
  _atom_site_type_symbol
  _atom_site_label
  _atom_site_symmetry_multiplicity
  _atom_site_fract_x
  _atom_site_fract_y
  _atom_site_fract_z
  _atom_site_occupancy
  H   H1        1.0  0.82048  0.58798  0.86621  1.0000
  H   H2        1.0  0.82019  0.41195  0.37531  1.0000
  H   H3        1.0  0.31918  0.08652  0.87726  1.0000
  H   H4        1.0  0.31493  0.91224  0.37050  1.0000
  H   H5        1.0  0.98710  0.50581  0.32905  1.0000
  H   H6        1.0  0.48637  0.99428  0.82949  1.0000
  H   H7        1.0  0.18575  0.60833  0.51629  1.0000
  H   H8        1.0  0.18351  0.39246  0.02148  1.0000
  H   H9        1.0  0.68000  0.89127  0.01409  1.0000
  H   H10       1.0  0.19864  0.52707  0.64277  1.0000
  H   H11       1.0  0.19996  0.47532  0.14360  1.0000
  H   H12       1.0  0.69332  0.97316  0.13933  1.0000
  H   H13       1.0  0.31630  0.52725  0.69261  1.0000
  H   H14       1.0  0.31777  0.47451  0.19272  1.0000
  H   H15       1.0  0.81125  0.97308  0.18997  1.0000
  H   H16       1.0  0.30272  0.60863  0.56552  1.0000
  H   H17       1.0  0.30053  0.39152  0.07002  1.0000
  H   H18       1.0  0.79696  0.89142  0.06292  1.0000
  H   H19       1.0  0.08763  0.58334  0.50208  1.0000
  H   H20       1.0  0.08762  0.41724  0.00954  1.0000
  H   H21       1.0  0.58806  0.08227  0.51437  1.0000
  H   H22       1.0  0.58280  0.91503  0.00268  1.0000
  H   H23       1.0  0.68362  0.58653  0.00743  1.0000
  H   H24       1.0  0.68621  0.41254  0.51897  1.0000
  H   H25       1.0  0.18595  0.08683  0.02041  1.0000
  H   H26       1.0  0.18413  0.91357  0.51729  1.0000
  H   H27       1.0  0.87518  0.49934  0.30375  1.0000
  H   H28       1.0  0.37478  0.99983  0.80519  1.0000
  H   H29       1.0  0.92524  0.49174  0.56583  1.0000
  H   H30       1.0  0.92666  0.50873  0.07531  1.0000
  H   H31       1.0  0.41981  0.99081  0.56608  1.0000
  H   H32       1.0  0.41971  0.00804  0.05808  1.0000
  H   H33       1.0  0.55056  0.61231  0.61696  1.0000
  H   H34       1.0  0.54249  0.38437  0.12001  1.0000
  H   H35       1.0  0.48197  0.52431  0.53514  1.0000
  H   H36       1.0  0.48785  0.47326  0.03810  1.0000
  H   H37       1.0  0.53276  0.52548  0.44283  1.0000
  H   H38       1.0  0.54124  0.46917  0.94877  1.0000
  H   H39       1.0  0.59281  0.57027  0.43634  1.0000
  H   H40       1.0  0.59512  0.42237  0.94381  1.0000
  H   H41       1.0  0.08845  0.08029  0.43731  1.0000
  H   H42       1.0  0.08691  0.92480  0.93378  1.0000
  H   H43       1.0  0.60034  0.61386  0.52291  1.0000
  H   H44       1.0  0.59437  0.37973  0.02853  1.0000
  H   H45       1.0  0.88151  0.57950  0.46841  1.0000
  H   H46       1.0  0.88088  0.42285  0.96381  1.0000
  H   H47       1.0  0.38193  0.07872  0.46853  1.0000
  H   H48       1.0  0.37638  0.91911  0.96745  1.0000
  H   H49       1.0  0.80227  0.24461  0.32848  1.0000
  H   H50       1.0  0.30500  0.25230  0.83608  1.0000
  H   H51       1.0  0.29457  0.75069  0.32127  1.0000
  H   H52       1.0  0.77024  0.12826  0.41030  1.0000
  H   H53       1.0  0.27429  0.37034  0.90869  1.0000
  H   H54       1.0  0.56996  0.13374  0.25329  1.0000
  H   H55       1.0  0.07227  0.36500  0.76082  1.0000
  H   H56       1.0  0.57378  0.18815  0.27866  1.0000
  H   H57       1.0  0.07526  0.31085  0.78740  1.0000
  H   H58       1.0  0.77430  0.18257  0.43576  1.0000
  H   H59       1.0  0.27737  0.31623  0.93486  1.0000
  H   H60       1.0  0.24033  0.51982  0.25693  1.0000
  H   H61       1.0  0.24141  0.48126  0.76004  1.0000
  H   H62       1.0  0.73308  0.01998  0.25945  1.0000
  H   H63       1.0  0.73863  0.97943  0.75294  1.0000
  H   H64       1.0  0.12569  0.15431  0.69142  1.0000
  H   H65       1.0  0.12721  0.84249  0.17936  1.0000
  H   H66       1.0  0.11388  0.19631  0.77132  1.0000
  H   H67       1.0  0.11336  0.80045  0.25744  1.0000
  H   H68       1.0  0.71269  0.84662  0.15334  1.0000
  H   H69       1.0  0.21498  0.34522  0.16460  1.0000
  H   H70       1.0  0.22099  0.65363  0.65922  1.0000
  H   H71       1.0  0.81293  0.11252  0.87174  1.0000
  H   H72       1.0  0.79903  0.88746  0.35708  1.0000
  H   H73       1.0  0.31970  0.57464  0.95281  1.0000
  H   H74       1.0  0.31976  0.42830  0.45652  1.0000
  H   H75       1.0  0.82551  0.06999  0.96335  1.0000
  H   H76       1.0  0.81173  0.93024  0.44831  1.0000
  H   H77       1.0  0.88302  0.02493  0.95408  1.0000
  H   H78       1.0  0.87549  0.97412  0.44515  1.0000
  H   H79       1.0  0.92901  0.02292  0.85660  1.0000
  H   H80       1.0  0.92646  0.97482  0.35279  1.0000
  H   H81       1.0  0.85821  0.11011  0.77327  1.0000
  H   H82       1.0  0.84880  0.88865  0.26324  1.0000
  H   H83       1.0  0.71138  0.44444  0.44414  1.0000
  H   H84       1.0  0.72970  0.49496  0.41323  1.0000
  H   H85       1.0  0.88003  0.50486  0.65501  1.0000
  H   H86       1.0  0.86456  0.45282  0.68423  1.0000
  H   H87       1.0  0.91479  0.41019  0.39183  1.0000
  H   H88       1.0  0.41062  0.09087  0.87971  1.0000
  H   H89       1.0  0.27870  0.49316  0.90111  1.0000
  H   H90       1.0  0.77452  0.99179  0.89291  1.0000
  H   H91       1.0  0.32960  0.40966  0.83577  1.0000
  H   H92       1.0  0.82787  0.90822  0.83128  1.0000
  H   H93       1.0  0.39779  0.39883  0.98208  1.0000
  H   H94       1.0  0.89435  0.89772  0.97833  1.0000
  H   H95       1.0  0.34381  0.48181  0.04662  1.0000
  H   H96       1.0  0.83739  0.98066  0.03929  1.0000
  H   H97       1.0  0.31694  0.20041  0.91188  1.0000
  H   H98       1.0  0.31402  0.80186  0.41557  1.0000
  H   H99       1.0  0.05248  0.46060  0.69062  1.0000
  H   H100      1.0  0.04003  0.51205  0.72826  1.0000
  H   H101      1.0  0.16829  0.49376  0.97683  1.0000
  H   H102      1.0  0.18434  0.44398  0.93861  1.0000
  H   H103      1.0  0.49981  0.91633  0.27456  1.0000
  H   H104      1.0  0.68105  0.95886  0.34475  1.0000
  H   H105      1.0  0.70607  0.92315  0.26054  1.0000
  H   H106      1.0  0.52419  0.88116  0.18998  1.0000
  H   H107      1.0  0.32880  0.15857  0.83091  1.0000
  H   H108      1.0  0.32819  0.84372  0.33653  1.0000
  H   H109      1.0  0.74258  0.80541  0.08605  1.0000
  H   H110      1.0  0.24546  0.30377  0.09883  1.0000
  H   H111      1.0  0.24934  0.69509  0.59090  1.0000
  H   H112      1.0  0.07438  0.25080  0.02173  1.0000
  H   H113      1.0  0.07651  0.75350  0.52044  1.0000
  H   H114      1.0  0.91643  0.57242  0.62626  1.0000
  H   H115      1.0  0.91606  0.42730  0.12225  1.0000
  H   H116      1.0  0.41167  0.92784  0.12271  1.0000
  H   H117      1.0  0.89907  0.60750  0.71766  1.0000
  H   H118      1.0  0.89859  0.39108  0.21126  1.0000
  H   H119      1.0  0.39456  0.89297  0.21472  1.0000
  H   H120      1.0  0.70535  0.57768  0.62753  1.0000
  H   H121      1.0  0.70792  0.42293  0.13204  1.0000
  H   H122      1.0  0.20080  0.92185  0.12462  1.0000
  H   H123      1.0  0.72309  0.54194  0.53836  1.0000
  H   H124      1.0  0.72576  0.45935  0.04496  1.0000
  H   H125      1.0  0.21790  0.95681  0.03364  1.0000
  H   H126      1.0  0.54430  0.87330  0.08434  1.0000
  H   H127      1.0  0.55364  0.12334  0.58602  1.0000
  H   H128      1.0  0.04898  0.37621  0.08417  1.0000
  H   H129      1.0  0.05342  0.62537  0.59233  1.0000
  H   H130      1.0  0.18224  0.57994  0.94806  1.0000
  H   H131      1.0  0.67029  0.08455  0.95097  1.0000
  H   H132      1.0  0.08074  0.51283  0.00914  1.0000
  H   H133      1.0  0.58401  0.00953  0.00682  1.0000
  H   H134      1.0  0.14752  0.52193  0.15388  1.0000
  H   H135      1.0  0.64757  0.01853  0.15180  1.0000
  H   H136      1.0  0.24908  0.58964  0.09473  1.0000
  H   H137      1.0  0.73602  0.09337  0.09828  1.0000
  H   H138      1.0  0.63326  0.49061  0.49270  1.0000
  H   H139      1.0  0.12950  0.99195  0.48699  1.0000
  H   H140      1.0  0.57079  0.47827  0.34684  1.0000
  H   H141      1.0  0.06485  0.98031  0.34107  1.0000
  H   H142      1.0  0.50625  0.39783  0.41118  1.0000
  H   H143      1.0  0.00358  0.89882  0.40425  1.0000
  H   H144      1.0  0.57318  0.40932  0.55782  1.0000
  H   H145      1.0  0.07035  0.91013  0.55117  1.0000
  H   H146      1.0  0.51671  0.83627  0.98065  1.0000
  H   H147      1.0  0.02297  0.34032  0.97681  1.0000
  H   H148      1.0  0.02438  0.66212  0.48836  1.0000
  H   H149      1.0  0.54628  0.79546  0.91356  1.0000
  H   H150      1.0  0.05339  0.29965  0.91044  1.0000
  H   H151      1.0  0.05235  0.70323  0.42032  1.0000
  H   H152      1.0  0.82052  0.64179  0.09524  1.0000
  H   H153      1.0  0.32571  0.13976  0.08237  1.0000
  H   H154      1.0  0.32437  0.86117  0.58855  1.0000
  H   H155      1.0  0.80569  0.69507  0.05568  1.0000
  H   H156      1.0  0.31060  0.19319  0.04436  1.0000
  H   H157      1.0  0.31094  0.80767  0.55032  1.0000
  H   H158      1.0  0.60424  0.68058  0.92095  1.0000
  H   H159      1.0  0.10853  0.18309  0.95820  1.0000
  H   H160      1.0  0.10764  0.81756  0.44053  1.0000
  H   H161      1.0  0.61922  0.62747  0.96004  1.0000
  H   H162      1.0  0.12354  0.12969  0.99311  1.0000
  H   H163      1.0  0.12114  0.87090  0.47780  1.0000
  H   H164      1.0  0.66740  0.51890  0.13092  1.0000
  H   H165      1.0  0.66920  0.48000  0.63142  1.0000
  H   H166      1.0  0.16945  0.01825  0.12964  1.0000
  H   H167      1.0  0.16343  0.98122  0.62690  1.0000
  H   H168      1.0  0.70910  0.91470  0.85777  1.0000
  H   H169      1.0  0.71272  0.08439  0.36831  1.0000
  H   H170      1.0  0.21661  0.41463  0.86871  1.0000
  H   H171      1.0  0.21432  0.58615  0.36154  1.0000
  H   H172      1.0  0.60091  0.22803  0.20283  1.0000
  H   H173      1.0  0.10468  0.27017  0.70948  1.0000
  H   H174      1.0  0.09654  0.72633  0.20825  1.0000
  H   H175      1.0  0.26618  0.22541  0.27443  1.0000
  H   H176      1.0  0.27059  0.77655  0.77390  1.0000
  H   H177      1.0  0.27386  0.23063  0.14480  1.0000
  H   H178      1.0  0.27833  0.76899  0.64503  1.0000
  H   H179      1.0  0.71337  0.77710  0.57353  1.0000
  H   H180      1.0  0.71618  0.22103  0.07544  1.0000
  H   H181      1.0  0.22141  0.27612  0.58388  1.0000
  H   H182      1.0  0.20349  0.72562  0.06927  1.0000
  H   H183      1.0  0.61035  0.21789  0.07624  1.0000
  H   H184      1.0  0.11532  0.27983  0.58358  1.0000
  H   H185      1.0  0.10160  0.71779  0.07813  1.0000
  H   H186      1.0  0.81221  0.23417  0.20236  1.0000
  H   H187      1.0  0.31622  0.26240  0.71081  1.0000
  H   H188      1.0  0.30020  0.74174  0.19170  1.0000
  H   H189      1.0  0.02647  0.41681  0.41802  1.0000
  H   H190      1.0  0.52251  0.08502  0.90616  1.0000
  H   H191      1.0  0.70015  0.62778  0.64048  1.0000
  H   H192      1.0  0.69621  0.37678  0.15403  1.0000
  H   H193      1.0  0.19198  0.12361  0.65263  1.0000
  H   H194      1.0  0.19304  0.87542  0.14987  1.0000
  H   H195      1.0  0.06609  0.24533  0.15077  1.0000
  H   H196      1.0  0.06815  0.76141  0.64870  1.0000
  H   H197      1.0  0.65582  0.72614  0.26593  1.0000
  H   H198      1.0  0.64790  0.27642  0.75972  1.0000
  H   H199      1.0  0.16236  0.23319  0.27794  1.0000
  H   H200      1.0  0.16562  0.77229  0.77648  1.0000
  H   H201      1.0  0.03701  0.49923  0.59129  1.0000
  H   H202      1.0  0.03854  0.50202  0.09957  1.0000
  H   H203      1.0  0.53199  0.99642  0.59137  1.0000
  H   H204      1.0  0.53149  0.00085  0.08351  1.0000
  H   H205      1.0  0.99253  0.58683  0.49277  1.0000
  H   H206      1.0  0.99174  0.41635  0.98707  1.0000
  H   H207      1.0  0.49308  0.08392  0.49149  1.0000
  H   H208      1.0  0.48733  0.91207  0.99136  1.0000
  C   C1        1.0  0.88617  0.45443  0.34438  1.0000
  C   C2        1.0  0.38403  0.04550  0.84019  1.0000
  C   C3        1.0  0.79492  0.56769  0.83639  1.0000
  C   C4        1.0  0.79415  0.43112  0.33974  1.0000
  C   C5        1.0  0.29261  0.06775  0.83913  1.0000
  C   C6        1.0  0.28912  0.93166  0.33617  1.0000
  C   C7        1.0  0.42786  0.56777  0.74886  1.0000
  C   C8        1.0  0.42706  0.43137  0.25093  1.0000
  C   C9        1.0  0.92605  0.06617  0.75059  1.0000
  C   C10       1.0  0.92173  0.93228  0.24542  1.0000
  C   C11       1.0  0.49476  0.56616  0.77874  1.0000
  C   C12       1.0  0.49402  0.43198  0.28096  1.0000
  C   C13       1.0  0.99281  0.06537  0.77950  1.0000
  C   C14       1.0  0.98864  0.93350  0.27515  1.0000
  C   C15       1.0  0.52230  0.56722  0.72429  1.0000
  C   C16       1.0  0.52154  0.43068  0.22659  1.0000
  C   C17       1.0  0.01985  0.06755  0.72474  1.0000
  C   C18       1.0  0.01627  0.93199  0.22091  1.0000
  C   C19       1.0  0.48307  0.56757  0.63977  1.0000
  C   C20       1.0  0.48222  0.43123  0.14212  1.0000
  C   C21       1.0  0.98011  0.06849  0.64041  1.0000
  C   C22       1.0  0.97720  0.93179  0.13643  1.0000
  C   C23       1.0  0.41616  0.56662  0.60995  1.0000
  C   C24       1.0  0.41553  0.43368  0.11221  1.0000
  C   C25       1.0  0.91331  0.06666  0.61106  1.0000
  C   C26       1.0  0.91039  0.93336  0.10662  1.0000
  C   C27       1.0  0.38855  0.56789  0.66428  1.0000
  C   C28       1.0  0.38789  0.43237  0.16649  1.0000
  C   C29       1.0  0.88642  0.06662  0.66628  1.0000
  C   C30       1.0  0.88269  0.93238  0.16085  1.0000
  C   C31       1.0  0.97173  0.48469  0.34211  1.0000
  C   C32       1.0  0.47039  0.01556  0.84031  1.0000
  C   C33       1.0  0.21422  0.59050  0.55494  1.0000
  C   C34       1.0  0.21288  0.41046  0.05915  1.0000
  C   C35       1.0  0.70856  0.90936  0.05220  1.0000
  C   C36       1.0  0.18428  0.56742  0.57629  1.0000
  C   C37       1.0  0.18410  0.43415  0.07968  1.0000
  C   C38       1.0  0.67885  0.93252  0.07322  1.0000
  C   C39       1.0  0.22230  0.54483  0.62689  1.0000
  C   C40       1.0  0.22293  0.45712  0.12850  1.0000
  C   C41       1.0  0.71687  0.95544  0.12339  1.0000
  C   C42       1.0  0.28774  0.54506  0.65428  1.0000
  C   C43       1.0  0.28835  0.45651  0.15557  1.0000
  C   C44       1.0  0.78234  0.95533  0.15098  1.0000
  C   C45       1.0  0.31798  0.56800  0.63282  1.0000
  C   C46       1.0  0.31742  0.43287  0.13523  1.0000
  C   C47       1.0  0.81225  0.93235  0.12945  1.0000
  C   C48       1.0  0.28021  0.59068  0.58268  1.0000
  C   C49       1.0  0.27876  0.40992  0.08640  1.0000
  C   C50       1.0  0.77446  0.90940  0.07969  1.0000
  C   C51       1.0  0.01460  0.46121  0.37080  1.0000
  C   C52       1.0  0.51247  0.03964  0.86597  1.0000
  C   C53       1.0  0.11509  0.56617  0.54563  1.0000
  C   C54       1.0  0.11509  0.43539  0.04979  1.0000
  C   C55       1.0  0.61431  0.06356  0.55234  1.0000
  C   C56       1.0  0.60978  0.93326  0.04302  1.0000
  C   C57       1.0  0.82664  0.53438  0.51061  1.0000
  C   C58       1.0  0.82687  0.46639  0.01169  1.0000
  C   C59       1.0  0.32418  0.03467  0.51049  1.0000
  C   C60       1.0  0.32174  0.96510  0.00668  1.0000
  C   C61       1.0  0.72785  0.59920  0.04005  1.0000
  C   C62       1.0  0.73133  0.40040  0.54404  1.0000
  C   C63       1.0  0.23125  0.09905  0.04768  1.0000
  C   C64       1.0  0.22916  0.90147  0.54688  1.0000
  C   C65       1.0  0.08454  0.53733  0.87766  1.0000
  C   C66       1.0  0.08351  0.46282  0.38044  1.0000
  C   C67       1.0  0.58188  0.03801  0.87745  1.0000
  C   C68       1.0  0.57920  0.96146  0.37560  1.0000
  C   C69       1.0  0.90866  0.48125  0.32850  1.0000
  C   C70       1.0  0.40740  0.01852  0.82715  1.0000
  C   C71       1.0  0.93944  0.51278  0.55053  1.0000
  C   C72       1.0  0.94044  0.48830  0.05648  1.0000
  C   C73       1.0  0.43542  0.01150  0.55082  1.0000
  C   C74       1.0  0.43406  0.98687  0.04403  1.0000
  C   C75       1.0  0.54657  0.59333  0.57860  1.0000
  C   C76       1.0  0.54235  0.40287  0.08228  1.0000
  C   C77       1.0  0.51280  0.56820  0.58279  1.0000
  C   C78       1.0  0.51209  0.42917  0.08572  1.0000
  C   C79       1.0  0.50821  0.54390  0.53299  1.0000
  C   C80       1.0  0.51162  0.45286  0.03650  1.0000
  C   C81       1.0  0.53687  0.54461  0.48073  1.0000
  C   C82       1.0  0.54162  0.45048  0.98602  1.0000
  C   C83       1.0  0.57037  0.56972  0.47694  1.0000
  C   C84       1.0  0.57184  0.42424  0.98322  1.0000
  C   C85       1.0  0.57484  0.59412  0.52594  1.0000
  C   C86       1.0  0.57169  0.40036  0.03116  1.0000
  C   C87       1.0  0.91575  0.56187  0.49615  1.0000
  C   C88       1.0  0.91559  0.44024  0.99420  1.0000
  C   C89       1.0  0.41501  0.06067  0.49636  1.0000
  C   C90       1.0  0.41045  0.93714  0.99301  1.0000
  C   C91       1.0  0.76019  0.23892  0.27315  1.0000
  C   C92       1.0  0.26346  0.25836  0.78085  1.0000
  C   C93       1.0  0.25233  0.74357  0.26791  1.0000
  C   C94       1.0  0.72745  0.14160  0.38123  1.0000
  C   C95       1.0  0.23084  0.35714  0.88126  1.0000
  C   C96       1.0  0.66950  0.12750  0.33159  1.0000
  C   C97       1.0  0.17278  0.37126  0.83367  1.0000
  C   C98       1.0  0.61443  0.14477  0.29248  1.0000
  C   C99       1.0  0.11699  0.35397  0.79782  1.0000
  C   C100      1.0  0.61687  0.17502  0.30699  1.0000
  C   C101      1.0  0.11897  0.32384  0.81315  1.0000
  C   C102      1.0  0.67399  0.18883  0.36065  1.0000
  C   C103      1.0  0.17642  0.31000  0.86435  1.0000
  C   C104      1.0  0.72966  0.17191  0.39546  1.0000
  C   C105      1.0  0.23261  0.32689  0.89613  1.0000
  C   C106      1.0  0.02391  0.54352  0.54632  1.0000
  C   C107      1.0  0.02420  0.45869  0.04771  1.0000
  C   C108      1.0  0.52173  0.04062  0.54636  1.0000
  C   C109      1.0  0.51839  0.95610  0.04118  1.0000
  C   C110      1.0  0.25978  0.54243  0.27074  1.0000
  C   C111      1.0  0.25884  0.45843  0.77367  1.0000
  C   C112      1.0  0.75342  0.04243  0.27235  1.0000
  C   C113      1.0  0.75667  0.95672  0.76743  1.0000
  C   C114      1.0  0.16761  0.16458  0.73944  1.0000
  C   C115      1.0  0.16814  0.83340  0.23092  1.0000
  C   C116      1.0  0.16087  0.18796  0.78432  1.0000
  C   C117      1.0  0.16025  0.81002  0.27463  1.0000
  C   C118      1.0  0.67699  0.83506  0.10091  1.0000
  C   C119      1.0  0.18025  0.33484  0.10919  1.0000
  C   C120      1.0  0.18483  0.66483  0.60694  1.0000
  C   C121      1.0  0.83858  0.09290  0.86897  1.0000
  C   C122      1.0  0.82725  0.90657  0.35669  1.0000
  C   C123      1.0  0.84547  0.06900  0.92017  1.0000
  C   C124      1.0  0.83432  0.93060  0.40788  1.0000
  C   C125      1.0  0.87777  0.04377  0.91506  1.0000
  C   C126      1.0  0.87000  0.95519  0.40607  1.0000
  C   C127      1.0  0.90361  0.04256  0.85985  1.0000
  C   C128      1.0  0.89868  0.95566  0.35387  1.0000
  C   C129      1.0  0.89744  0.06654  0.80869  1.0000
  C   C130      1.0  0.89186  0.93168  0.30217  1.0000
  C   C131      1.0  0.86409  0.09159  0.81346  1.0000
  C   C132      1.0  0.85550  0.90718  0.30399  1.0000
  C   C133      1.0  0.78772  0.44447  0.56550  1.0000
  C   C134      1.0  0.74841  0.45757  0.49085  1.0000
  C   C135      1.0  0.75943  0.48633  0.47320  1.0000
  C   C136      1.0  0.80909  0.50342  0.52998  1.0000
  C   C137      1.0  0.84385  0.49139  0.60795  1.0000
  C   C138      1.0  0.83475  0.46230  0.62521  1.0000
  C   C139      1.0  0.93022  0.43126  0.37814  1.0000
  C   C140      1.0  0.42706  0.06949  0.86982  1.0000
  C   C141      1.0  0.30483  0.47247  0.91889  1.0000
  C   C142      1.0  0.80071  0.97116  0.91185  1.0000
  C   C143      1.0  0.29995  0.45206  0.85876  1.0000
  C   C144      1.0  0.79715  0.95059  0.85275  1.0000
  C   C145      1.0  0.33377  0.42535  0.88268  1.0000
  C   C146      1.0  0.83102  0.92394  0.87766  1.0000
  C   C147      1.0  0.37090  0.41925  0.96416  1.0000
  C   C148      1.0  0.86719  0.91805  0.95943  1.0000
  C   C149      1.0  0.37481  0.43934  0.02456  1.0000
  C   C150      1.0  0.86980  0.93833  0.01877  1.0000
  C   C151      1.0  0.34112  0.46601  0.00062  1.0000
  C   C152      1.0  0.83584  0.96489  0.99384  1.0000
  C   C153      1.0  0.17463  0.24106  0.07458  1.0000
  C   C154      1.0  0.17802  0.76034  0.57429  1.0000
  C   C155      1.0  0.22835  0.15393  0.75585  1.0000
  C   C156      1.0  0.22881  0.84565  0.25293  1.0000
  C   C157      1.0  0.27513  0.19027  0.86364  1.0000
  C   C158      1.0  0.27325  0.81089  0.36393  1.0000
  C   C159      1.0  0.21453  0.20128  0.84645  1.0000
  C   C160      1.0  0.21271  0.79841  0.34141  1.0000
  C   C161      1.0  0.61308  0.84389  0.07171  1.0000
  C   C162      1.0  0.11721  0.34528  0.07551  1.0000
  C   C163      1.0  0.12113  0.65549  0.57869  1.0000
  C   C164      1.0  0.07798  0.46810  0.75313  1.0000
  C   C165      1.0  0.07057  0.49680  0.77481  1.0000
  C   C166      1.0  0.10030  0.50640  0.85618  1.0000
  C   C167      1.0  0.14282  0.48710  0.91373  1.0000
  C   C168      1.0  0.15233  0.45871  0.89204  1.0000
  C   C169      1.0  0.11840  0.44821  0.81228  1.0000
  C   C170      1.0  0.54519  0.91803  0.27215  1.0000
  C   C171      1.0  0.58938  0.93969  0.31800  1.0000
  C   C172      1.0  0.64687  0.94162  0.31138  1.0000
  C   C173      1.0  0.66119  0.92181  0.26441  1.0000
  C   C174      1.0  0.61721  0.89965  0.21993  1.0000
  C   C175      1.0  0.55858  0.89830  0.22348  1.0000
  C   C176      1.0  0.89533  0.53566  0.51910  1.0000
  C   C177      1.0  0.89569  0.46571  0.02078  1.0000
  C   C178      1.0  0.39306  0.03506  0.51988  1.0000
  C   C179      1.0  0.39013  0.96366  0.01441  1.0000
  C   C180      1.0  0.28208  0.16698  0.81910  1.0000
  C   C181      1.0  0.28141  0.83415  0.32036  1.0000
  C   C182      1.0  0.69320  0.81225  0.06322  1.0000
  C   C183      1.0  0.19682  0.31189  0.07234  1.0000
  C   C184      1.0  0.20019  0.68773  0.56868  1.0000
  C   C185      1.0  0.11616  0.24504  0.07705  1.0000
  C   C186      1.0  0.11891  0.75847  0.57613  1.0000
  C   C187      1.0  0.81970  0.55591  0.57112  1.0000
  C   C188      1.0  0.82046  0.44458  0.07197  1.0000
  C   C189      1.0  0.31471  0.94358  0.06701  1.0000
  C   C190      1.0  0.86959  0.57386  0.62446  1.0000
  C   C191      1.0  0.86975  0.42596  0.12209  1.0000
  C   C192      1.0  0.36488  0.92621  0.12099  1.0000
  C   C193      1.0  0.86026  0.59364  0.67617  1.0000
  C   C194      1.0  0.86046  0.40566  0.17265  1.0000
  C   C195      1.0  0.35582  0.90665  0.17326  1.0000
  C   C196      1.0  0.80021  0.59674  0.67452  1.0000
  C   C197      1.0  0.80119  0.40285  0.17362  1.0000
  C   C198      1.0  0.29600  0.90344  0.17231  1.0000
  C   C199      1.0  0.75089  0.57736  0.62512  1.0000
  C   C200      1.0  0.75289  0.42306  0.12814  1.0000
  C   C201      1.0  0.24643  0.92234  0.12243  1.0000
  C   C202      1.0  0.76114  0.55716  0.57518  1.0000
  C   C203      1.0  0.76302  0.44361  0.07901  1.0000
  C   C204      1.0  0.25623  0.94210  0.07132  1.0000
  C   C205      1.0  0.59493  0.86705  0.11232  1.0000
  C   C206      1.0  0.60302  0.13155  0.61725  1.0000
  C   C207      1.0  0.09885  0.36885  0.11495  1.0000
  C   C208      1.0  0.10381  0.63227  0.62006  1.0000
  C   C209      1.0  0.17508  0.56684  0.99271  1.0000
  C   C210      1.0  0.66608  0.06962  0.99448  1.0000
  C   C211      1.0  0.12774  0.54494  0.96739  1.0000
  C   C212      1.0  0.62403  0.04553  0.96747  1.0000
  C   C213      1.0  0.11841  0.52936  0.02737  1.0000
  C   C214      1.0  0.61783  0.02780  0.02631  1.0000
  C   C215      1.0  0.15657  0.53432  0.10941  1.0000
  C   C216      1.0  0.65448  0.03270  0.10864  1.0000
  C   C217      1.0  0.20564  0.55572  0.13459  1.0000
  C   C218      1.0  0.69964  0.05591  0.13565  1.0000
  C   C219      1.0  0.21288  0.57238  0.07496  1.0000
  C   C220      1.0  0.70306  0.07478  0.07720  1.0000
  C   C221      1.0  0.60592  0.47014  0.47463  1.0000
  C   C222      1.0  0.10139  0.97168  0.46885  1.0000
  C   C223      1.0  0.57086  0.46325  0.39292  1.0000
  C   C224      1.0  0.06553  0.96507  0.38704  1.0000
  C   C225      1.0  0.53483  0.43704  0.36890  1.0000
  C   C226      1.0  0.02984  0.93877  0.36286  1.0000
  C   C227      1.0  0.53538  0.41777  0.42911  1.0000
  C   C228      1.0  0.03163  0.91907  0.42276  1.0000
  C   C229      1.0  0.57173  0.42424  0.51077  1.0000
  C   C230      1.0  0.06813  0.92538  0.50442  1.0000
  C   C231      1.0  0.60765  0.45056  0.53468  1.0000
  C   C232      1.0  0.10358  0.95184  0.52869  1.0000
  C   C233      1.0  0.66370  0.77326  0.95479  1.0000
  C   C234      1.0  0.66853  0.22593  0.45763  1.0000
  C   C235      1.0  0.16962  0.27386  0.96223  1.0000
  C   C236      1.0  0.16968  0.72668  0.46124  1.0000
  C   C237      1.0  0.67665  0.74490  0.98988  1.0000
  C   C238      1.0  0.67971  0.25456  0.49205  1.0000
  C   C239      1.0  0.18065  0.24561  0.99829  1.0000
  C   C240      1.0  0.18272  0.75500  0.49739  1.0000
  C   C241      1.0  0.69441  0.72204  0.95211  1.0000
  C   C242      1.0  0.69861  0.27741  0.45525  1.0000
  C   C243      1.0  0.19884  0.22214  0.96279  1.0000
  C   C244      1.0  0.19944  0.77826  0.45967  1.0000
  C   C245      1.0  0.69786  0.72747  0.87875  1.0000
  C   C246      1.0  0.70461  0.27184  0.38355  1.0000
  C   C247      1.0  0.20499  0.22690  0.89085  1.0000
  C   C248      1.0  0.20264  0.77313  0.38605  1.0000
  C   C249      1.0  0.68607  0.75605  0.84436  1.0000
  C   C250      1.0  0.69421  0.24317  0.34976  1.0000
  C   C251      1.0  0.19633  0.25536  0.85648  1.0000
  C   C252      1.0  0.19131  0.74464  0.35101  1.0000
  C   C253      1.0  0.66960  0.77902  0.88320  1.0000
  C   C254      1.0  0.67696  0.22015  0.38767  1.0000
  C   C255      1.0  0.17905  0.27892  0.89274  1.0000
  C   C256      1.0  0.17535  0.72132  0.38926  1.0000
  C   C257      1.0  0.56621  0.82952  0.00357  1.0000
  C   C258      1.0  0.07186  0.33244  0.00329  1.0000
  C   C259      1.0  0.07371  0.66931  0.51053  1.0000
  C   C260      1.0  0.58275  0.80667  0.96598  1.0000
  C   C261      1.0  0.08886  0.30954  0.96616  1.0000
  C   C262      1.0  0.08937  0.69229  0.47232  1.0000
  C   C263      1.0  0.77343  0.65065  0.05765  1.0000
  C   C264      1.0  0.27851  0.14958  0.05558  1.0000
  C   C265      1.0  0.27723  0.85118  0.55775  1.0000
  C   C266      1.0  0.76478  0.68025  0.03528  1.0000
  C   C267      1.0  0.26976  0.17926  0.03414  1.0000
  C   C268      1.0  0.26941  0.82148  0.53577  1.0000
  C   C269      1.0  0.70400  0.69127  0.98430  1.0000
  C   C270      1.0  0.20843  0.19162  0.99661  1.0000
  C   C271      1.0  0.20838  0.80906  0.49215  1.0000
  C   C272      1.0  0.65150  0.67211  0.95923  1.0000
  C   C273      1.0  0.15610  0.17370  0.98526  1.0000
  C   C274      1.0  0.15506  0.82698  0.47377  1.0000
  C   C275      1.0  0.65991  0.64246  0.98124  1.0000
  C   C276      1.0  0.16455  0.14383  0.00535  1.0000
  C   C277      1.0  0.16263  0.85678  0.49518  1.0000
  C   C278      1.0  0.72102  0.63114  0.02926  1.0000
  C   C279      1.0  0.22561  0.13116  0.03920  1.0000
  C   C280      1.0  0.22370  0.86942  0.53643  1.0000
  C   C281      1.0  0.64809  0.54145  0.11835  1.0000
  C   C282      1.0  0.64866  0.45756  0.61949  1.0000
  C   C283      1.0  0.14880  0.04055  0.11727  1.0000
  C   C284      1.0  0.14439  0.95853  0.61383  1.0000
  C   C285      1.0  0.66258  0.90382  0.82513  1.0000
  C   C286      1.0  0.66744  0.09528  0.33023  1.0000
  C   C287      1.0  0.17113  0.40351  0.83138  1.0000
  C   C288      1.0  0.16777  0.59673  0.32836  1.0000
  C   C289      1.0  0.64627  0.79769  0.99532  1.0000
  C   C290      1.0  0.15136  0.29880  0.00047  1.0000
  C   C291      1.0  0.15268  0.70189  0.50116  1.0000
  C   C292      1.0  0.64709  0.22951  0.20244  1.0000
  C   C293      1.0  0.15096  0.26850  0.70956  1.0000
  C   C294      1.0  0.14102  0.72986  0.20438  1.0000
  C   C295      1.0  0.22404  0.23086  0.21915  1.0000
  C   C296      1.0  0.22799  0.77145  0.71856  1.0000
  C   C297      1.0  0.22840  0.23372  0.14630  1.0000
  C   C298      1.0  0.23243  0.76716  0.64613  1.0000
  C   C299      1.0  0.71190  0.22557  0.13082  1.0000
  C   C300      1.0  0.21655  0.27178  0.63891  1.0000
  C   C301      1.0  0.20112  0.72943  0.12618  1.0000
  C   C302      1.0  0.70076  0.23720  0.27424  1.0000
  C   C303      1.0  0.20398  0.26068  0.78149  1.0000
  C   C304      1.0  0.19510  0.73928  0.27356  1.0000
  C   C305      1.0  0.65249  0.22382  0.13123  1.0000
  C   C306      1.0  0.15704  0.27391  0.63876  1.0000
  C   C307      1.0  0.14389  0.72508  0.13118  1.0000
  C   C308      1.0  0.76574  0.23305  0.20208  1.0000
  C   C309      1.0  0.26973  0.26400  0.71018  1.0000
  C   C310      1.0  0.25535  0.73859  0.19488  1.0000
  C   C311      1.0  0.99313  0.43487  0.39170  1.0000
  C   C312      1.0  0.48999  0.06631  0.88326  1.0000
  C   C313      1.0  0.74037  0.63243  0.69984  1.0000
  C   C314      1.0  0.74010  0.36904  0.20506  1.0000
  C   C315      1.0  0.23542  0.13039  0.70627  1.0000
  C   C316      1.0  0.23622  0.86932  0.20437  1.0000
  C   C317      1.0  0.11170  0.24209  0.14979  1.0000
  C   C318      1.0  0.11436  0.76290  0.64838  1.0000
  C   C319      1.0  0.16570  0.23516  0.22113  1.0000
  C   C320      1.0  0.16898  0.76916  0.71997  1.0000
  C   C321      1.0  0.00252  0.51680  0.56449  1.0000
  C   C322      1.0  0.00346  0.48474  0.06983  1.0000
  C   C323      1.0  0.49863  0.01439  0.56435  1.0000
  C   C324      1.0  0.49704  0.98301  0.05790  1.0000
  C   C325      1.0  0.97853  0.56597  0.50962  1.0000
  C   C326      1.0  0.97826  0.43659  0.00729  1.0000
  C   C327      1.0  0.47783  0.06359  0.50922  1.0000
  C   C328      1.0  0.47317  0.93319  0.00638  1.0000
  N   N1        1.0  0.11904  0.41820  0.79361  1.0000
  N   N2        1.0  0.11544  0.58167  0.29478  1.0000
  N   N3        1.0  0.61033  0.91868  0.79152  1.0000
  N   N4        1.0  0.61526  0.08044  0.29214  1.0000
  N   N5        1.0  0.24717  0.56228  0.21553  1.0000
  N   N6        1.0  0.24443  0.43830  0.71843  1.0000
  N   N7        1.0  0.74127  0.06215  0.21685  1.0000
  N   N8        1.0  0.74280  0.93647  0.71267  1.0000
  N   N9        1.0  0.08936  0.54546  0.56955  1.0000
  N   N10       1.0  0.08964  0.45698  0.07086  1.0000
  N   N11       1.0  0.58739  0.04170  0.57026  1.0000
  N   N12       1.0  0.58374  0.95460  0.06397  1.0000
  N   N13       1.0  0.82207  0.54491  0.82315  1.0000
  N   N14       1.0  0.82088  0.45323  0.32247  1.0000
  N   N15       1.0  0.31889  0.04623  0.81910  1.0000
  N   N16       1.0  0.31621  0.95365  0.31893  1.0000
  N   N17       1.0  0.66094  0.56101  0.17477  1.0000
  N   N18       1.0  0.66096  0.43829  0.67608  1.0000
  N   N19       1.0  0.16089  0.06008  0.17351  1.0000
  N   N20       1.0  0.15744  0.93882  0.66953  1.0000
  N   N21       1.0  0.78569  0.41391  0.57663  1.0000
  N   N22       1.0  0.78200  0.58624  0.07960  1.0000
  N   N23       1.0  0.28317  0.91512  0.58295  1.0000
  N   N24       1.0  0.28538  0.08559  0.07953  1.0000
  N   N25       1.0  0.14551  0.62055  0.68598  1.0000
  N   N26       1.0  0.13964  0.38054  0.18201  1.0000
  N   N27       1.0  0.64360  0.12077  0.68544  1.0000
  N   N28       1.0  0.63629  0.87928  0.17803  1.0000
  N   N29       1.0  0.79387  0.61871  0.72417  1.0000
  N   N30       1.0  0.79545  0.38009  0.22154  1.0000
  N   N31       1.0  0.29045  0.11911  0.72334  1.0000
  N   N32       1.0  0.29081  0.88156  0.22279  1.0000
  C  Sn1       1.0  0.05275  0.41021  0.27802  1.0000
  C   C329      1.0  0.09208  0.43237  0.32870  1.0000
  C  Sn2       1.0  0.14650  0.44148  0.32187  1.0000
  C  Sn3       1.0  0.16191  0.42817  0.26313  1.0000
  C   C330      1.0  0.12259  0.40603  0.21248  1.0000
  C  Sn4       1.0  0.06816  0.39690  0.21928  1.0000
  O  Te1       1.0  0.99858  0.40145  0.28592  1.0000
  O  Te2       1.0  0.18510  0.46367  0.37323  1.0000
  O  Te3       1.0  0.21613  0.43695  0.25527  1.0000
  O  Te4       1.0  0.02957  0.37472  0.16795  1.0000
  Mg  Mg1       1.0  0.25375  0.46805  0.33911  1.0000
  Mg  Mg2       1.0  0.96089  0.37034  0.20199  1.0000
  C  Sn5       1.0  0.94273  0.57162  0.86903  1.0000
  C   C331      1.0  0.89228  0.55161  0.83269  1.0000
  C  Sn6       1.0  0.90390  0.52233  0.81945  1.0000
  C  Sn7       1.0  0.96727  0.51285  0.84307  1.0000
  C   C332      1.0  0.01767  0.53285  0.87940  1.0000
  C  Sn8       1.0  0.00610  0.56214  0.89265  1.0000
  O  Te5       1.0  0.93000  0.60079  0.88169  1.0000
  O  Te6       1.0  0.85268  0.50274  0.78299  1.0000
  O  Te7       1.0  0.97996  0.48366  0.83038  1.0000
  O  Te8       1.0  0.05727  0.58173  0.92910  1.0000
  Mg  Mg3       1.0  0.89429  0.46526  0.77859  1.0000
  Mg  Mg4       1.0  0.01572  0.61921  0.93357  1.0000
  C  Sn9       1.0  0.63176  0.97548  0.54511  1.0000
  C   C333      1.0  0.63351  0.96170  0.47821  1.0000
  C  Sn10      1.0  0.66590  0.93508  0.48735  1.0000
  C  Sn11      1.0  0.69717  0.92196  0.56497  1.0000
  C   C334      1.0  0.69540  0.93574  0.63182  1.0000
  C  Sn12      1.0  0.66303  0.96236  0.62274  1.0000
  O  Te9       1.0  0.59113  0.00208  0.53457  1.0000
  O  Te10      1.0  0.66700  0.92172  0.41956  1.0000
  O  Te11      1.0  0.72985  0.89534  0.57547  1.0000
  O  Te12      1.0  0.66191  0.97571  0.69047  1.0000
  Mg  Mg5       1.0  0.71776  0.88563  0.46475  1.0000
  Mg  Mg6       1.0  0.60318  0.01179  0.64534  1.0000
  C  Sn13      1.0  0.66515  0.06845  0.76959  1.0000
  C   C335      1.0  0.62628  0.09027  0.71787  1.0000
  C  Sn14      1.0  0.57025  0.09864  0.72134  1.0000
  C  Sn15      1.0  0.55271  0.08494  0.77771  1.0000
  C   C336      1.0  0.59157  0.06315  0.82940  1.0000
  C  Sn16      1.0  0.64762  0.05475  0.82596  1.0000
  O  Te13      1.0  0.72096  0.06043  0.76507  1.0000
  O  Te14      1.0  0.53215  0.12050  0.66900  1.0000
  O  Te15      1.0  0.49685  0.09299  0.78219  1.0000
  O  Te16      1.0  0.68571  0.03292  0.87827  1.0000
  Mg  Mg7       1.0  0.46072  0.12386  0.69824  1.0000
  Mg  Mg8       1.0  0.75716  0.02955  0.84911  1.0000
  C  Sn17      1.0  0.57916  0.00501  0.25880  1.0000
  C   C337      1.0  0.61469  0.99180  0.33514  1.0000
  C  Sn18      1.0  0.63525  0.00914  0.40511  1.0000
  C  Sn19      1.0  0.63622  0.04033  0.39864  1.0000
  C   C338      1.0  0.60866  0.05352  0.32233  1.0000
  C  Sn20      1.0  0.58013  0.03620  0.25233  1.0000
  O  Te17      1.0  0.55887  0.98725  0.18967  1.0000
  O  Te18      1.0  0.67047  0.99542  0.48076  1.0000
  O  Te19      1.0  0.66451  0.05809  0.46785  1.0000
  O  Te20      1.0  0.55288  0.04990  0.17671  1.0000
  Mg  Mg9       1.0  0.69529  0.02909  0.55725  1.0000
  Mg  Mg10      1.0  0.52006  0.01626  0.10019  1.0000
  C  Sn21      1.0  0.04411  0.58146  0.74736  1.0000
  C   C339      1.0  0.08140  0.55832  0.79454  1.0000
  C  Sn22      1.0  0.14643  0.55728  0.81561  1.0000
  C  Sn23      1.0  0.17480  0.57985  0.78902  1.0000
  C   C340      1.0  0.13752  0.60297  0.74189  1.0000
  C  Sn24      1.0  0.07248  0.60403  0.72077  1.0000
  O  Te21      1.0  0.97919  0.58205  0.72702  1.0000
  O  Te22      1.0  0.18273  0.53392  0.86281  1.0000
  O  Te23      1.0  0.23977  0.57924  0.80940  1.0000
  O  Te24      1.0  0.03619  0.62737  0.67362  1.0000
  Mg  Mg11      1.0  0.26925  0.54287  0.87482  1.0000
  Mg  Mg12      1.0  0.94968  0.61845  0.66161  1.0000
  C  Sn25      1.0  0.69240  0.95619  0.00372  1.0000
  C   C341      1.0  0.07396  0.93378  0.99176  1.0000
  C  Sn26      1.0  0.71952  0.90420  0.01940  1.0000
  C  Sn27      1.0  0.68086  0.89988  0.05981  1.0000
  C   C342      1.0  0.64840  0.92377  0.07175  1.0000
  C  Sn28      1.0  0.65374  0.95188  0.04413  1.0000
  O  Te25      1.0  0.04753  0.98557  0.97557  1.0000
  O  Te26      1.0  0.75246  0.88066  0.00676  1.0000
  O  Te27      1.0  0.67484  0.87196  0.08797  1.0000
  O  Te28      1.0  0.62082  0.97541  0.05675  1.0000
  Mg  Mg13      1.0  0.72902  0.84683  0.05623  1.0000
  Mg  Mg14      1.0  0.63623  0.00924  0.00727  1.0000
  C  Sn29      1.0  0.23556  0.92531  0.87676  1.0000
  C   C343      1.0  0.28202  0.94723  0.91193  1.0000
  C  Sn30      1.0  0.28534  0.97105  0.86582  1.0000
  C  Sn31      1.0  0.24126  0.97300  0.78283  1.0000
  C   C344      1.0  0.19483  0.95109  0.74770  1.0000
  C  Sn32      1.0  0.19149  0.92726  0.79377  1.0000
  O  Te29      1.0  0.23313  0.90170  0.92401  1.0000
  O  Te30      1.0  0.33222  0.99269  0.90233  1.0000
  O  Te31      1.0  0.24373  0.99663  0.73559  1.0000
  O  Te32      1.0  0.14463  0.90563  0.75731  1.0000
  Mg  Mg15      1.0  0.30823  0.02059  0.81278  1.0000
  Mg  Mg16      1.0  0.16059  0.87773  0.84680  1.0000
  C  Sn33      1.0  0.63919  0.53771  0.76169  1.0000
  C   C345      1.0  0.60130  0.55972  0.77102  1.0000
  C  Sn34      1.0  0.62540  0.58828  0.79427  1.0000
  C  Sn35      1.0  0.68868  0.59499  0.80845  1.0000
  C   C346      1.0  0.72652  0.57299  0.79911  1.0000
  C  Sn36      1.0  0.70246  0.54442  0.77587  1.0000
  O  Te33      1.0  0.61411  0.50931  0.73840  1.0000
  O  Te34      1.0  0.58663  0.60992  0.80323  1.0000
  O  Te35      1.0  0.71374  0.62341  0.83176  1.0000
  O  Te36      1.0  0.74119  0.52279  0.76690  1.0000
  Mg  Mg17      1.0  0.64235  0.64533  0.83594  1.0000
  Mg  Mg18      1.0  0.68551  0.48738  0.73415  1.0000
  C  Sn37      1.0  0.17354  0.90189  0.30369  1.0000
  C   C347      1.0  0.21164  0.92325  0.29160  1.0000
  C  Sn38      1.0  0.18774  0.95143  0.26440  1.0000
  C  Sn39      1.0  0.12445  0.95841  0.24903  1.0000
  C   C348      1.0  0.08639  0.93706  0.26114  1.0000
  C  Sn40      1.0  0.11025  0.90887  0.28832  1.0000
  O  Te37      1.0  0.19842  0.87386  0.33091  1.0000
  O  Te38      1.0  0.22673  0.97242  0.25273  1.0000
  O  Te39      1.0  0.09958  0.98647  0.22179  1.0000
  O  Te40      1.0  0.07130  0.88789  0.30001  1.0000
  Mg  Mg19      1.0  0.16326  0.00753  0.21500  1.0000
  Mg  Mg20      1.0  0.12676  0.85278  0.33777  1.0000
  C  Sn41      1.0  0.60798  0.74853  0.08379  1.0000
  C   C349      1.0  0.66281  0.74747  0.07186  1.0000
  C  Sn42      1.0  0.71835  0.73454  0.12981  1.0000
  C  Sn43      1.0  0.71911  0.72242  0.20115  1.0000
  C   C350      1.0  0.66430  0.72348  0.21304  1.0000
  C  Sn44      1.0  0.60874  0.73641  0.15513  1.0000
  O  Te41      1.0  0.55299  0.76156  0.02504  1.0000
  O  Te42      1.0  0.77258  0.73375  0.11656  1.0000
  O  Te43      1.0  0.77417  0.70938  0.25991  1.0000
  O  Te44      1.0  0.55454  0.73720  0.16835  1.0000
  Mg  Mg21      1.0  0.83593  0.71363  0.21430  1.0000
  Mg  Mg22      1.0  0.49115  0.75730  0.07063  1.0000
  C  Sn45      1.0  0.14008  0.09708  0.79491  1.0000
  C   C351      1.0  0.09608  0.07577  0.74706  1.0000
  C  Sn46      1.0  0.11668  0.04804  0.73538  1.0000
  C  Sn47      1.0  0.18264  0.04147  0.77234  1.0000
  C   C352      1.0  0.22660  0.06277  0.82017  1.0000
  C  Sn48      1.0  0.20604  0.09051  0.83187  1.0000
  O  Te45      1.0  0.11842  0.12465  0.80576  1.0000
  O  Te46      1.0  0.07180  0.02710  0.68726  1.0000
  O  Te47      1.0  0.20428  0.01387  0.76145  1.0000
  O  Te48      1.0  0.25088  0.11144  0.87997  1.0000
  Mg  Mg23      1.0  0.13273  0.99269  0.69062  1.0000
  Mg  Mg24      1.0  0.19798  0.14585  0.87669  1.0000
  C  Sn49      1.0  0.32436  0.59431  0.82938  1.0000
  C   C353      1.0  0.32644  0.57382  0.88714  1.0000
  C  Sn50      1.0  0.37070  0.55090  0.91098  1.0000
  C  Sn51      1.0  0.41381  0.54842  0.87641  1.0000
  C   C354      1.0  0.41172  0.56890  0.81870  1.0000
  C  Sn52      1.0  0.36747  0.59182  0.79481  1.0000
  O  Te49      1.0  0.27972  0.61704  0.80646  1.0000
  O  Te50      1.0  0.37185  0.53068  0.96881  1.0000
  O  Te51      1.0  0.45847  0.52566  0.89939  1.0000
  O  Te52      1.0  0.36631  0.61204  0.73703  1.0000
  Mg  Mg25      1.0  0.44143  0.50357  0.98038  1.0000
  Mg  Mg26      1.0  0.29678  0.63917  0.72545  1.0000
  C  Sn53      1.0  0.36678  0.45955  0.38507  1.0000
  C   C355      1.0  0.33287  0.43640  0.39817  1.0000
  C  Sn54      1.0  0.33571  0.40791  0.37075  1.0000
  C  Sn55      1.0  0.37324  0.40244  0.32942  1.0000
  C   C356      1.0  0.40713  0.42559  0.31635  1.0000
  C  Sn56      1.0  0.40432  0.45409  0.34373  1.0000
  O  Te53      1.0  0.36325  0.48786  0.41301  1.0000
  O  Te54      1.0  0.30137  0.38512  0.38455  1.0000
  O  Te55      1.0  0.37675  0.37411  0.30147  1.0000
  O  Te56      1.0  0.43863  0.47687  0.32997  1.0000
  Mg  Mg27      1.0  0.32145  0.35034  0.33492  1.0000
  Mg  Mg28      1.0  0.41862  0.51165  0.37960  1.0000
  C  Sn57      1.0  0.78139  0.68952  0.84682  1.0000
  C   C357      1.0  0.72499  0.70485  0.82821  1.0000
  C  Sn58      1.0  0.66680  0.69371  0.77041  1.0000
  C  Sn59      1.0  0.66492  0.66667  0.73041  1.0000
  C   C358      1.0  0.72129  0.65135  0.74903  1.0000
  C  Sn60      1.0  0.77952  0.66247  0.80682  1.0000
  O  Te57      1.0  0.83903  0.70107  0.90481  1.0000
  O  Te58      1.0  0.61104  0.70945  0.75281  1.0000
  O  Te59      1.0  0.60722  0.65513  0.67238  1.0000
  O  Te60      1.0  0.83524  0.64675  0.82444  1.0000
  Mg  Mg29      1.0  0.54417  0.68467  0.66931  1.0000
  Mg  Mg30      1.0  0.90213  0.67150  0.90795  1.0000
  C  Sn61      1.0  0.66113  0.30979  0.24798  1.0000
  C   C359      1.0  0.70808  0.29450  0.31258  1.0000
  C  Sn62      1.0  0.76954  0.30619  0.35346  1.0000
  C  Sn63      1.0  0.78439  0.33375  0.32930  1.0000
  C   C360      1.0  0.73745  0.34903  0.26474  1.0000
  C  Sn64      1.0  0.67597  0.33735  0.22382  1.0000
  O  Te61      1.0  0.60001  0.29769  0.20798  1.0000
  O  Te62      1.0  0.81569  0.29049  0.41785  1.0000
  O  Te63      1.0  0.84557  0.34585  0.36936  1.0000
  O  Te64      1.0  0.62985  0.35304  0.15948  1.0000
  Mg  Mg31      1.0  0.89208  0.31612  0.45342  1.0000
  Mg  Mg32      1.0  0.55344  0.32743  0.12389  1.0000
  C  Sn65      1.0  0.54560  0.98840  0.77246  1.0000
  C   C361      1.0  0.57332  0.00290  0.84601  1.0000
  C  Sn66      1.0  0.63844  0.99089  0.90296  1.0000
  C  Sn67      1.0  0.66042  0.96381  0.88602  1.0000
  C   C362      1.0  0.62476  0.94933  0.81250  1.0000
  C  Sn68      1.0  0.56758  0.96132  0.75552  1.0000
  O  Te65      1.0  0.48860  0.00082  0.71642  1.0000
  O  Te66      1.0  0.66530  0.00579  0.97608  1.0000
  O  Te67      1.0  0.71747  0.95140  0.94214  1.0000
  O  Te68      1.0  0.53277  0.94644  0.68244  1.0000
  Mg  Mg33      1.0  0.39891  0.97853  0.03308  1.0000
  Mg  Mg34      1.0  0.45806  0.97220  0.62538  1.0000
  C  Sn69      1.0  0.72338  0.08616  0.54500  1.0000
  C   C363      1.0  0.68717  0.06510  0.56183  1.0000
  C  Sn70      1.0  0.71668  0.04477  0.62426  1.0000
  C  Sn71      1.0  0.78377  0.04551  0.67089  1.0000
  C   C364      1.0  0.81994  0.06656  0.65406  1.0000
  C  Sn72      1.0  0.79047  0.08690  0.59163  1.0000
  O  Te69      1.0  0.69287  0.10627  0.48231  1.0000
  O  Te70      1.0  0.67948  0.02392  0.63992  1.0000
  O  Te71      1.0  0.81426  0.02538  0.73362  1.0000
  O  Te72      1.0  0.82762  0.10775  0.57597  1.0000
  Mg  Mg35      1.0  0.74306  0.00119  0.73170  1.0000
  Mg  Mg36      1.0  0.76410  0.13050  0.48424  1.0000
  C  Sn73      1.0  0.23120  0.64882  0.39735  1.0000
  C   C365      1.0  0.17790  0.63074  0.35634  1.0000
  C  Sn74      1.0  0.11864  0.64314  0.30761  1.0000
  C  Sn75      1.0  0.11253  0.67426  0.29966  1.0000
  C   C366      1.0  0.16581  0.69233  0.34064  1.0000
  C  Sn76      1.0  0.22509  0.67995  0.38940  1.0000
  O  Te73      1.0  0.28998  0.63595  0.44573  1.0000
  O  Te74      1.0  0.06604  0.62460  0.26723  1.0000
  O  Te75      1.0  0.05368  0.68713  0.25123  1.0000
  O  Te76      1.0  0.27767  0.69847  0.42975  1.0000
  Mg  Mg37      1.0  0.99606  0.65264  0.20835  1.0000
  Mg  Mg38      1.0  0.34768  0.67046  0.48861  1.0000
  C  Sn77      1.0  0.67908  0.40084  0.30734  1.0000
  C   C367      1.0  0.71653  0.42229  0.29424  1.0000
  C  Sn78      1.0  0.69224  0.45044  0.26742  1.0000
  C  Sn79      1.0  0.62922  0.45732  0.25344  1.0000
  C   C368      1.0  0.59181  0.43588  0.26656  1.0000
  C  Sn80      1.0  0.61605  0.40772  0.29337  1.0000
  O  Te77      1.0  0.70434  0.37284  0.33417  1.0000
  O  Te78      1.0  0.73059  0.47150  0.25472  1.0000
  O  Te79      1.0  0.60398  0.48534  0.22660  1.0000
  O  Te80      1.0  0.57775  0.38667  0.30608  1.0000
  Mg  Mg39      1.0  0.67476  0.50654  0.21805  1.0000
  Mg  Mg40      1.0  0.63353  0.35163  0.34279  1.0000
  C  Sn81      1.0  0.24693  0.02295  0.29469  1.0000
  C   C369      1.0  0.20073  0.04474  0.25963  1.0000
  C  Sn82      1.0  0.19742  0.06852  0.30601  1.0000
  C  Sn83      1.0  0.24124  0.07058  0.38915  1.0000
  C   C370      1.0  0.28742  0.04880  0.42416  1.0000
  C  Sn84      1.0  0.29075  0.02501  0.37783  1.0000
  O  Te81      1.0  0.25732  0.99937  0.24717  1.0000
  O  Te82      1.0  0.15080  0.09003  0.26962  1.0000
  O  Te83      1.0  0.23878  0.09418  0.43666  1.0000
  O  Te84      1.0  0.33735  0.00352  0.41417  1.0000
  Mg  Mg41      1.0  0.16672  0.11794  0.35954  1.0000
  Mg  Mg42      1.0  0.32946  0.97560  0.32431  1.0000
  C  Sn85      1.0  0.25176  0.06637  0.63008  1.0000
  C   C371      1.0  0.29366  0.08769  0.68129  1.0000
  C  Sn86      1.0  0.34827  0.09565  0.67337  1.0000
  C  Sn87      1.0  0.36124  0.08202  0.61296  1.0000
  C   C372      1.0  0.31934  0.06071  0.56178  1.0000
  C  Sn88      1.0  0.26473  0.05274  0.56967  1.0000
  O  Te85      1.0  0.19745  0.05876  0.63909  1.0000
  O  Te86      1.0  0.38947  0.11702  0.72530  1.0000
  O  Te87      1.0  0.41560  0.08964  0.60399  1.0000
  O  Te88      1.0  0.22354  0.03139  0.51778  1.0000
  Mg  Mg43      1.0  0.45724  0.11993  0.68919  1.0000
  Mg  Mg44      1.0  0.15575  0.02846  0.55381  1.0000
  C  Sn89      1.0  0.84660  0.08635  0.44550  1.0000
  C   C373      1.0  0.85754  0.06869  0.51252  1.0000
  C  Sn90      1.0  0.84076  0.03879  0.50225  1.0000
  C  Sn91      1.0  0.81249  0.02627  0.42337  1.0000
  C   C374      1.0  0.80158  0.04392  0.35642  1.0000
  C  Sn92      1.0  0.81833  0.07382  0.36662  1.0000
  O  Te89      1.0  0.86376  0.11618  0.45719  1.0000
  O  Te90      1.0  0.85215  0.02159  0.57017  1.0000
  O  Te91      1.0  0.80330  0.99641  0.41173  1.0000
  O  Te92      1.0  0.80697  0.09102  0.29876  1.0000
  Mg  Mg45      1.0  0.82841  0.98204  0.52314  1.0000
  Mg  Mg46      1.0  0.83868  0.13056  0.34572  1.0000
  C  Sn93      1.0  0.74591  0.52328  0.29478  1.0000
  C   C375      1.0  0.70110  0.54571  0.26085  1.0000
  C  Sn94      1.0  0.69997  0.56965  0.30811  1.0000
  C  Sn95      1.0  0.74459  0.57122  0.39100  1.0000
  C   C376      1.0  0.78937  0.54880  0.42488  1.0000
  C  Sn96      1.0  0.79052  0.52485  0.37766  1.0000
  O  Te93      1.0  0.74616  0.49954  0.24640  1.0000
  O  Te94      1.0  0.65471  0.59181  0.27285  1.0000
  O  Te95      1.0  0.74430  0.59498  0.43938  1.0000
  O  Te96      1.0  0.83575  0.50271  0.41288  1.0000
  Mg  Mg47      1.0  0.67347  0.61969  0.36365  1.0000
  Mg  Mg48      1.0  0.81707  0.47483  0.32213  1.0000
  C  Sn97      1.0  0.72615  0.84881  0.84958  1.0000
  C   C377      1.0  0.67300  0.86710  0.81385  1.0000
  C  Sn98      1.0  0.61328  0.85724  0.80344  1.0000
  C  Sn99      1.0  0.60655  0.82851  0.82932  1.0000
  C   C378      1.0  0.65968  0.81024  0.86503  1.0000
  C  Sn100     1.0  0.71942  0.82008  0.87546  1.0000
  O  Te97      1.0  0.78539  0.85913  0.85939  1.0000
  O  Te98      1.0  0.56083  0.87592  0.76754  1.0000
  O  Te99      1.0  0.54724  0.81820  0.81947  1.0000
  O  Te100     1.0  0.77185  0.80142  0.91134  1.0000
  Mg  Mg49      1.0  0.49006  0.85185  0.76736  1.0000
  Mg  Mg50      1.0  0.84265  0.82548  0.91159  1.0000
  C  Sn101     1.0  0.77993  0.34591  0.52475  1.0000
  C   C379      1.0  0.73320  0.36648  0.51670  1.0000
  C  Sn102     1.0  0.67192  0.35707  0.50084  1.0000
  C  Sn103     1.0  0.65705  0.32647  0.49291  1.0000
  C   C380      1.0  0.70377  0.30593  0.50098  1.0000
  C  Sn104     1.0  0.76506  0.31532  0.51682  1.0000
  O  Te101     1.0  0.84088  0.35581  0.54060  1.0000
  O  Te102     1.0  0.62599  0.37804  0.49302  1.0000
  O  Te103     1.0  0.59605  0.31658  0.47705  1.0000
  O  Te104     1.0  0.81098  0.29436  0.52466  1.0000
  Mg  Mg51      1.0  0.54980  0.35364  0.47150  1.0000
  Mg  Mg52      1.0  0.88719  0.31873  0.54621  1.0000
  C  Sn105     1.0  0.35342  0.98457  0.61336  1.0000
  C   C381      1.0  0.32112  0.99961  0.54026  1.0000
  C  Sn106     1.0  0.26428  0.98826  0.47994  1.0000
  C  Sn107     1.0  0.23917  0.96132  0.49297  1.0000
  C   C382      1.0  0.27146  0.94630  0.56604  1.0000
  C  Sn108     1.0  0.32832  0.95763  0.62639  1.0000
  O  Te105     1.0  0.41017  0.99632  0.67281  1.0000
  O  Te106     1.0  0.22489  0.00369  0.40735  1.0000
  O  Te107     1.0  0.18238  0.94958  0.43344  1.0000
  O  Te108     1.0  0.35973  0.94222  0.69895  1.0000
  Mg  Mg53      1.0  0.15709  0.97874  0.34477  1.0000
  Mg  Mg54      1.0  0.43548  0.96716  0.76158  1.0000
  C  Sn109     1.0  0.77534  0.46349  0.79578  1.0000
  C   C383      1.0  0.72547  0.44304  0.76221  1.0000
  C  Sn110     1.0  0.69849  0.43081  0.80944  1.0000
  C  Sn111     1.0  0.72181  0.43920  0.89193  1.0000
  C   C384      1.0  0.77164  0.45965  0.92544  1.0000
  C  Sn112     1.0  0.79866  0.47189  0.87826  1.0000
  O  Te109     1.0  0.80159  0.47544  0.74743  1.0000
  O  Te110     1.0  0.64870  0.41039  0.77455  1.0000
  O  Te111     1.0  0.69552  0.42723  0.94027  1.0000
  O  Te112     1.0  0.84841  0.49230  0.91311  1.0000
  Mg  Mg55      1.0  0.62853  0.40028  0.86513  1.0000
  Mg  Mg56      1.0  0.86859  0.50243  0.82258  1.0000
  C  Sn113     1.0  0.44477  0.93432  0.40577  1.0000
  C   C385      1.0  0.39423  0.95383  0.36697  1.0000
  C  Sn114     1.0  0.39947  0.97691  0.32005  1.0000
  C  Sn115     1.0  0.45640  0.98057  0.31171  1.0000
  C   C386      1.0  0.50689  0.96107  0.35048  1.0000
  C  Sn116     1.0  0.50169  0.93797  0.39743  1.0000
  O  Te113     1.0  0.43848  0.91139  0.45237  1.0000
  O  Te114     1.0  0.34832  0.99614  0.28186  1.0000
  O  Te115     1.0  0.45469  0.00352  0.26506  1.0000
  O  Te116     1.0  0.55280  0.91875  0.43559  1.0000
  Mg  Mg57      1.0  0.37182  0.02397  0.22486  1.0000
  Mg  Mg58      1.0  0.52137  0.89090  0.49257  1.0000
  C  Sn117     1.0  0.57990  0.16437  0.47778  1.0000
  C   C387      1.0  0.61791  0.15211  0.55355  1.0000
  C  Sn118     1.0  0.67353  0.16648  0.60754  1.0000
  C  Sn119     1.0  0.69152  0.19368  0.58537  1.0000
  C   C388      1.0  0.65352  0.20593  0.50965  1.0000
  C  Sn120     1.0  0.59789  0.19157  0.45560  1.0000
  O  Te117     1.0  0.52450  0.14962  0.42477  1.0000
  O  Te118     1.0  0.71078  0.15378  0.68294  1.0000
  O  Te119     1.0  0.74698  0.20842  0.63846  1.0000
  O  Te120     1.0  0.56066  0.20425  0.38026  1.0000
  Mg  Mg59      1.0  0.78194  0.18230  0.73427  1.0000
  Mg  Mg60      1.0  0.48946  0.17577  0.32890  1.0000
  C  Sn121     1.0  0.64953  0.78650  0.64907  1.0000
  C   C389      1.0  0.70295  0.78128  0.63595  1.0000
  C  Sn122     1.0  0.75220  0.76339  0.68891  1.0000
  C  Sn123     1.0  0.74795  0.75042  0.75637  1.0000
  C   C390      1.0  0.69455  0.75564  0.76946  1.0000
  C  Sn124     1.0  0.64528  0.77354  0.71653  1.0000
  O  Te121     1.0  0.60086  0.80447  0.59534  1.0000
  O  Te122     1.0  0.80514  0.75850  0.67455  1.0000
  O  Te123     1.0  0.79668  0.73245  0.81011  1.0000
  O  Te124     1.0  0.59236  0.77842  0.73085  1.0000
  Mg  Mg61      1.0  0.85910  0.73237  0.76489  1.0000
  Mg  Mg62      1.0  0.53836  0.80454  0.64053  1.0000
  C  Sn125     1.0  0.16941  0.53193  0.39426  1.0000
  C   C391      1.0  0.13687  0.54579  0.31934  1.0000
  C  Sn126     1.0  0.07962  0.53401  0.26101  1.0000
  C  Sn127     1.0  0.05435  0.50784  0.27792  1.0000
  C   C392      1.0  0.08688  0.49399  0.35279  1.0000
  C  Sn128     1.0  0.14414  0.50575  0.41116  1.0000
  O  Te125     1.0  0.22657  0.54410  0.45168  1.0000
  O  Te126     1.0  0.04797  0.54826  0.18655  1.0000
  O  Te127     1.0  0.99715  0.49567  0.22042  1.0000
  O  Te128     1.0  0.17578  0.49152  0.48559  1.0000
  Mg  Mg63      1.0  0.97166  0.52316  0.12795  1.0000
  Mg  Mg64      1.0  0.25207  0.51661  0.54424  1.0000
  C  Sn129     1.0  0.34698  0.52798  0.48065  1.0000
  C   C393      1.0  0.38181  0.55367  0.51523  1.0000
  C  Sn130     1.0  0.37182  0.57928  0.46905  1.0000
  C  Sn131     1.0  0.32602  0.57921  0.38661  1.0000
  C   C394      1.0  0.29121  0.55353  0.35208  1.0000
  C  Sn132     1.0  0.30118  0.52791  0.39821  1.0000
  O  Te129     1.0  0.35775  0.50264  0.52795  1.0000
  O  Te130     1.0  0.40724  0.60469  0.50495  1.0000
  O  Te131     1.0  0.31527  0.60458  0.33931  1.0000
  O  Te132     1.0  0.26579  0.50251  0.36235  1.0000
  Mg  Mg65      1.0  0.37534  0.63372  0.41558  1.0000
  Mg  Mg66      1.0  0.29762  0.47348  0.45167  1.0000
  C  Sn133     1.0  0.06130  0.02633  0.90685  1.0000
  C   C395      1.0  0.02681  0.05199  0.87319  1.0000
  C  Sn134     1.0  0.03686  0.07743  0.92041  1.0000
  C  Sn135     1.0  0.73327  0.07574  0.00299  1.0000
  C   C396      1.0  0.76774  0.05009  0.03661  1.0000
  C  Sn136     1.0  0.10680  0.02612  0.98943  1.0000
  O  Te133     1.0  0.05844  0.00115  0.85851  1.0000
  O  Te134     1.0  0.00178  0.10282  0.88542  1.0000
  O  Te135     1.0  0.74408  0.10095  0.05133  1.0000
  O  Te136     1.0  0.80073  0.99926  0.02438  1.0000
  Mg  Mg67      1.0  0.03362  0.13160  0.97604  1.0000
  Mg  Mg68      1.0  0.11804  0.97196  0.93381  1.0000
  C  Sn137     1.0  0.14111  0.47887  0.54867  1.0000
  C   C397      1.0  0.13911  0.46296  0.48251  1.0000
  C  Sn138     1.0  0.16526  0.43470  0.49321  1.0000
  C  Sn139     1.0  0.19396  0.42207  0.57167  1.0000
  C   C398      1.0  0.19594  0.43798  0.63777  1.0000
  C  Sn140     1.0  0.16981  0.46624  0.62712  1.0000
  O  Te137     1.0  0.11467  0.50709  0.53656  1.0000
  O  Te138     1.0  0.16272  0.41922  0.42615  1.0000
  O  Te139     1.0  0.22041  0.39383  0.58373  1.0000
  O  Te140     1.0  0.17233  0.48171  0.69412  1.0000
  Mg  Mg69      1.0  0.20524  0.38148  0.47349  1.0000
  Mg  Mg70      1.0  0.12980  0.51944  0.64686  1.0000
  C  Sn141     1.0  0.08088  0.09893  0.55981  1.0000
  C   C399      1.0  0.08070  0.07888  0.50193  1.0000
  C  Sn142     1.0  0.03894  0.05476  0.47836  1.0000
  C  Sn143     1.0  0.99644  0.05060  0.51333  1.0000
  C   C400      1.0  0.99663  0.07064  0.57116  1.0000
  C  Sn144     1.0  0.03839  0.09476  0.59478  1.0000
  O  Te141     1.0  0.12304  0.12289  0.58246  1.0000
  O  Te142     1.0  0.03964  0.03501  0.42041  1.0000
  O  Te143     1.0  0.95426  0.02661  0.49063  1.0000
  O  Te144     1.0  0.03768  0.11451  0.65268  1.0000
  Mg  Mg71      1.0  0.97317  0.00578  0.40933  1.0000
  Mg  Mg72      1.0  0.10411  0.14375  0.66378  1.0000
  C  Sn145     1.0  0.61497  0.53214  0.95447  1.0000
  C   C401      1.0  0.27054  0.54693  0.02141  1.0000
  C  Sn146     1.0  0.22695  0.56932  0.01187  1.0000
  C  Sn147     1.0  0.52674  0.57703  0.93380  1.0000
  C   C402      1.0  0.52210  0.56075  0.86693  1.0000
  C  Sn148     1.0  0.56567  0.53836  0.87641  1.0000
  O  Te145     1.0  0.65907  0.50986  0.96542  1.0000
  O  Te146     1.0  0.23258  0.58530  0.07969  1.0000
  O  Te147     1.0  0.48262  0.59933  0.92290  1.0000
  O  Te148     1.0  0.56005  0.52238  0.80864  1.0000
  Mg  Mg73      1.0  0.16099  0.61349  0.03385  1.0000
  Mg  Mg74      1.0  0.63159  0.49418  0.85441  1.0000
  C  Sn149     1.0  0.35144  0.03323  0.11880  1.0000
  C   C403      1.0  0.30719  0.05385  0.06911  1.0000
  C  Sn150     1.0  0.60343  0.04618  0.99886  1.0000
  C  Sn151     1.0  0.59461  0.01578  0.97785  1.0000
  C   C404      1.0  0.29772  0.99369  0.02752  1.0000
  C  Sn152     1.0  0.34262  0.00283  0.09779  1.0000
  O  Te149     1.0  0.40391  0.04288  0.18875  1.0000
  O  Te150     1.0  0.55985  0.06721  0.95012  1.0000
  O  Te151     1.0  0.54209  0.00614  0.90783  1.0000
  O  Te152     1.0  0.39414  0.98182  0.14651  1.0000
  Mg  Mg75      1.0  0.49593  0.04318  0.86100  1.0000
  Mg  Mg76      1.0  0.45009  0.00582  0.23566  1.0000
  C  Sn153     1.0  0.72932  0.26360  0.66230  1.0000
  C   C405      1.0  0.68344  0.25493  0.58558  1.0000
  C  Sn154     1.0  0.61868  0.25720  0.56527  1.0000
  C  Sn155     1.0  0.59937  0.26837  0.62283  1.0000
  C   C406      1.0  0.64524  0.27704  0.69949  1.0000
  C  Sn156     1.0  0.71001  0.27478  0.71985  1.0000
  O  Te153     1.0  0.79379  0.26114  0.68128  1.0000
  O  Te154     1.0  0.57369  0.24838  0.48820  1.0000
  O  Te155     1.0  0.53484  0.27082  0.60378  1.0000
  O  Te156     1.0  0.75498  0.28359  0.79686  1.0000
  Mg  Mg77      1.0  0.49155  0.25598  0.49097  1.0000
  Mg  Mg78      1.0  0.83713  0.27602  0.79414  1.0000
  C  Sn157     1.0  0.77045  0.52423  0.96428  1.0000
  C   C407      1.0  0.46335  0.50196  0.01668  1.0000
  C  Sn158     1.0  0.48907  0.50589  0.10049  1.0000
  C  Sn159     1.0  0.47245  0.53111  0.13262  1.0000
  C   C408      1.0  0.43048  0.55187  0.08024  1.0000
  C  Sn160     1.0  0.75383  0.54945  0.99641  1.0000
  O  Te157     1.0  0.74532  0.51986  0.88069  1.0000
  O  Te158     1.0  0.53095  0.48481  0.15166  1.0000
  O  Te159     1.0  0.49763  0.53547  0.21627  1.0000
  O  Te160     1.0  0.71196  0.57051  0.94525  1.0000
  Mg  Mg79      1.0  0.55266  0.50057  0.26117  1.0000
  Mg  Mg80      1.0  0.69020  0.55476  0.83574  1.0000
