data_image0
_chemical_formula_structural       H208C328N32C2Sn2C2HTe2HMgC2Sn2C2HTe2HMgC2Sn2C2HTe2HMgC2Sn2C2HTe2HMgC2Sn2C2HTe2HMgC2Sn2C2HTe2HMgC2Sn2C2HTe2HMgC2Sn2C2HTe2HMgC2Sn2C2HTe2HMgC2Sn2C2HTe2HMgC2Sn2C2HTe2HMgC2Sn2C2HTe2HMgC2Sn2C2HTe2HMgC2Sn2C2HTe2HMgC2Sn2C2HTe2HMgC2Sn2C2HTe2HMgC2Sn2C2HTe2HMgC2Sn2C2HTe2HMgC2Sn2C2HTe2HMgC2Sn2C2HTe2HMgC2Sn2C2HTe2HMgC2Sn2C2HTe2HMgC2Sn2C2HTe2HMgC2Sn2C2HTe2HMgC2Sn2C2HTe2HMgC2Sn2C2HTe2HMgC2Sn2C2HTe2HMgC2Sn2C2HTe2HMgC2Sn2C2HTe2HMgC2Sn2C2HTe2HMgC2Sn2C2HTe2HMgC2Sn2C2HTe2HMgC2Sn2C2HTe2HMgC2Sn2C2HTe2HMgC2Sn2C2HTe2HMgC2Sn2C2HTe2HMgC2Sn2C2HTe2HMgC2Sn2C2HTe2HMgC2Sn2C2HTe2HMgC2Sn2C2HTe2HMg
_chemical_formula_sum              "H288 C488 N32 Sn80 Te80 Mg40"
_cell_length_a       23.4382
_cell_length_b       45.2713
_cell_length_c       18.4254
_cell_angle_alpha    90.1041
_cell_angle_beta     116.362
_cell_angle_gamma    90.2363

_symmetry_space_group_name_H-M    'P1'
_space_group_IT_number       1

loop_
  _space_group_symop_operation_xyz
  'x, y, z'

loop_
  _atom_site_type_symbol
  _atom_site_label
  _atom_site_symmetry_multiplicity
  _atom_site_fract_x
  _atom_site_fract_y
  _atom_site_fract_z
  _atom_site_occupancy
  H   H1        1.0  0.82048  0.58798  0.86621  1.0000
  H   H2        1.0  0.82019  0.41195  0.37531  1.0000
  H   H3        1.0  0.31918  0.08652  0.87726  1.0000
  H   H4        1.0  0.31493  0.91224  0.37050  1.0000
  H   H5        1.0  0.48637  0.99428  0.82949  1.0000
  H   H6        1.0  0.48062  0.00315  0.31049  1.0000
  H   H7        1.0  0.68295  0.10667  0.52609  1.0000
  H   H8        1.0  0.68000  0.89127  0.01409  1.0000
  H   H9        1.0  0.69874  0.02333  0.64515  1.0000
  H   H10       1.0  0.69332  0.97316  0.13933  1.0000
  H   H11       1.0  0.81657  0.02479  0.69481  1.0000
  H   H12       1.0  0.81125  0.97308  0.18997  1.0000
  H   H13       1.0  0.79983  0.10760  0.57255  1.0000
  H   H14       1.0  0.79696  0.89142  0.06292  1.0000
  H   H15       1.0  0.08763  0.58334  0.50208  1.0000
  H   H16       1.0  0.08762  0.41724  0.00954  1.0000
  H   H17       1.0  0.58806  0.08227  0.51437  1.0000
  H   H18       1.0  0.58280  0.91503  0.00268  1.0000
  H   H19       1.0  0.23073  0.07915  0.44169  1.0000
  H   H20       1.0  0.22763  0.91996  0.93783  1.0000
  H   H21       1.0  0.68362  0.58653  0.00743  1.0000
  H   H22       1.0  0.68621  0.41254  0.51897  1.0000
  H   H23       1.0  0.18595  0.08683  0.02041  1.0000
  H   H24       1.0  0.18413  0.91357  0.51729  1.0000
  H   H25       1.0  0.37478  0.99983  0.80519  1.0000
  H   H26       1.0  0.36899  0.99752  0.28812  1.0000
  H   H27       1.0  0.92666  0.50873  0.07531  1.0000
  H   H28       1.0  0.04359  0.11548  0.62331  1.0000
  H   H29       1.0  0.04225  0.88606  0.11593  1.0000
  H   H30       1.0  0.98253  0.02779  0.53099  1.0000
  H   H31       1.0  0.97903  0.97388  0.03063  1.0000
  H   H32       1.0  0.03338  0.03326  0.43914  1.0000
  H   H33       1.0  0.02983  0.97062  0.93853  1.0000
  H   H34       1.0  0.59281  0.57027  0.43634  1.0000
  H   H35       1.0  0.59512  0.42237  0.94381  1.0000
  H   H36       1.0  0.08845  0.08029  0.43731  1.0000
  H   H37       1.0  0.08691  0.92480  0.93378  1.0000
  H   H38       1.0  0.09244  0.12159  0.52887  1.0000
  H   H39       1.0  0.09208  0.88233  0.02222  1.0000
  H   H40       1.0  0.88088  0.42285  0.96381  1.0000
  H   H41       1.0  0.80227  0.24461  0.32848  1.0000
  H   H42       1.0  0.30500  0.25230  0.83608  1.0000
  H   H43       1.0  0.29457  0.75069  0.32127  1.0000
  H   H44       1.0  0.10069  0.89019  0.31572  1.0000
  H   H45       1.0  0.08917  0.97288  0.19513  1.0000
  H   H46       1.0  0.20702  0.97260  0.24470  1.0000
  H   H47       1.0  0.21744  0.88983  0.36394  1.0000
  H   H48       1.0  0.76546  0.86930  0.88681  1.0000
  H   H49       1.0  0.77024  0.12826  0.41030  1.0000
  H   H50       1.0  0.56118  0.86717  0.77042  1.0000
  H   H51       1.0  0.56996  0.13374  0.25329  1.0000
  H   H52       1.0  0.56305  0.81282  0.79574  1.0000
  H   H53       1.0  0.57378  0.18815  0.27866  1.0000
  H   H54       1.0  0.76765  0.81499  0.91067  1.0000
  H   H55       1.0  0.77430  0.18257  0.43576  1.0000
  H   H56       1.0  0.24033  0.51982  0.25693  1.0000
  H   H57       1.0  0.24141  0.48126  0.76004  1.0000
  H   H58       1.0  0.73308  0.01998  0.25945  1.0000
  H   H59       1.0  0.73863  0.97943  0.75294  1.0000
  H   H60       1.0  0.62995  0.34436  0.18525  1.0000
  H   H61       1.0  0.12721  0.84249  0.17936  1.0000
  H   H62       1.0  0.61551  0.30223  0.26247  1.0000
  H   H63       1.0  0.11336  0.80045  0.25744  1.0000
  H   H64       1.0  0.71269  0.84662  0.15334  1.0000
  H   H65       1.0  0.30980  0.61619  0.85944  1.0000
  H   H66       1.0  0.31000  0.38502  0.36795  1.0000
  H   H67       1.0  0.81293  0.11252  0.87174  1.0000
  H   H68       1.0  0.31970  0.57464  0.95281  1.0000
  H   H69       1.0  0.31976  0.42830  0.45652  1.0000
  H   H70       1.0  0.82551  0.06999  0.96335  1.0000
  H   H71       1.0  0.81173  0.93024  0.44831  1.0000
  H   H72       1.0  0.37968  0.52948  0.95125  1.0000
  H   H73       1.0  0.38007  0.47305  0.45021  1.0000
  H   H74       1.0  0.88302  0.02493  0.95408  1.0000
  H   H75       1.0  0.42982  0.52609  0.85823  1.0000
  H   H76       1.0  0.42964  0.47431  0.35632  1.0000
  H   H77       1.0  0.92901  0.02292  0.85660  1.0000
  H   H78       1.0  0.35960  0.61245  0.76587  1.0000
  H   H79       1.0  0.35908  0.38664  0.27322  1.0000
  H   H80       1.0  0.85821  0.11011  0.77327  1.0000
  H   H81       1.0  0.71595  0.55671  0.94184  1.0000
  H   H82       1.0  0.73612  0.50672  0.91032  1.0000
  H   H83       1.0  0.87371  0.49503  0.15863  1.0000
  H   H84       1.0  0.85652  0.54673  0.18895  1.0000
  H   H85       1.0  0.41062  0.09087  0.87971  1.0000
  H   H86       1.0  0.41158  0.91156  0.39761  1.0000
  H   H87       1.0  0.27807  0.50789  0.39700  1.0000
  H   H88       1.0  0.27870  0.49316  0.90111  1.0000
  H   H89       1.0  0.77147  0.00849  0.40005  1.0000
  H   H90       1.0  0.77452  0.99179  0.89291  1.0000
  H   H91       1.0  0.33172  0.59126  0.33391  1.0000
  H   H92       1.0  0.32960  0.40966  0.83577  1.0000
  H   H93       1.0  0.82663  0.09097  0.33413  1.0000
  H   H94       1.0  0.82787  0.90822  0.83128  1.0000
  H   H95       1.0  0.39982  0.60215  0.48069  1.0000
  H   H96       1.0  0.39779  0.39883  0.98208  1.0000
  H   H97       1.0  0.89573  0.10220  0.48018  1.0000
  H   H98       1.0  0.89435  0.89772  0.97833  1.0000
  H   H99       1.0  0.34272  0.51935  0.54302  1.0000
  H   H100      1.0  0.34381  0.48181  0.04662  1.0000
  H   H101      1.0  0.83775  0.02013  0.54526  1.0000
  H   H102      1.0  0.83739  0.98066  0.03929  1.0000
  H   H103      1.0  0.81812  0.29734  0.40549  1.0000
  H   H104      1.0  0.31402  0.80186  0.41557  1.0000
  H   H105      1.0  0.05248  0.46060  0.69062  1.0000
  H   H106      1.0  0.53613  0.95982  0.69218  1.0000
  H   H107      1.0  0.54798  0.03807  0.18955  1.0000
  H   H108      1.0  0.04003  0.51205  0.72826  1.0000
  H   H109      1.0  0.52638  0.01145  0.73013  1.0000
  H   H110      1.0  0.53497  0.98663  0.22631  1.0000
  H   H111      1.0  0.16829  0.49376  0.97683  1.0000
  H   H112      1.0  0.67238  0.99555  0.97175  1.0000
  H   H113      1.0  0.66298  0.00536  0.47549  1.0000
  H   H114      1.0  0.18434  0.44398  0.93861  1.0000
  H   H115      1.0  0.68516  0.94542  0.93216  1.0000
  H   H116      1.0  0.67909  0.05532  0.43787  1.0000
  H   H117      1.0  0.00117  0.42052  0.27130  1.0000
  H   H118      1.0  0.18902  0.45775  0.35748  1.0000
  H   H119      1.0  0.21325  0.42206  0.27254  1.0000
  H   H120      1.0  0.02456  0.38555  0.18572  1.0000
  H   H121      1.0  0.32385  0.00918  0.37789  1.0000
  H   H122      1.0  0.31933  0.99098  0.87450  1.0000
  H   H123      1.0  0.83257  0.33948  0.32737  1.0000
  H   H124      1.0  0.32819  0.84372  0.33653  1.0000
  H   H125      1.0  0.74258  0.80541  0.08605  1.0000
  H   H126      1.0  0.56906  0.74518  0.01058  1.0000
  H   H127      1.0  0.57133  0.24902  0.51003  1.0000
  H   H128      1.0  0.07651  0.75350  0.52044  1.0000
  H   H129      1.0  0.91643  0.57242  0.62626  1.0000
  H   H130      1.0  0.41255  0.07420  0.62289  1.0000
  H   H131      1.0  0.89907  0.60750  0.71766  1.0000
  H   H132      1.0  0.39417  0.10925  0.71417  1.0000
  H   H133      1.0  0.70535  0.57768  0.62753  1.0000
  H   H134      1.0  0.20233  0.07714  0.62743  1.0000
  H   H135      1.0  0.72309  0.54194  0.53836  1.0000
  H   H136      1.0  0.22113  0.04176  0.53877  1.0000
  H   H137      1.0  0.54430  0.87330  0.08434  1.0000
  H   H138      1.0  0.55364  0.12334  0.58602  1.0000
  H   H139      1.0  0.04898  0.37621  0.08417  1.0000
  H   H140      1.0  0.05342  0.62537  0.59233  1.0000
  H   H141      1.0  0.67776  0.91952  0.44448  1.0000
  H   H142      1.0  0.57600  0.98531  0.50851  1.0000
  H   H143      1.0  0.64244  0.97548  0.65299  1.0000
  H   H144      1.0  0.74560  0.91001  0.59069  1.0000
  H   H145      1.0  0.12998  0.00636  0.99016  1.0000
  H   H146      1.0  0.12950  0.99195  0.48699  1.0000
  H   H147      1.0  0.06599  0.01808  0.84429  1.0000
  H   H148      1.0  0.06485  0.98031  0.34107  1.0000
  H   H149      1.0  0.00959  0.10035  0.90942  1.0000
  H   H150      1.0  0.00358  0.89882  0.40425  1.0000
  H   H151      1.0  0.07670  0.08910  0.05606  1.0000
  H   H152      1.0  0.07035  0.91013  0.55117  1.0000
  H   H153      1.0  0.51671  0.83627  0.98065  1.0000
  H   H154      1.0  0.54628  0.79546  0.91356  1.0000
  H   H155      1.0  0.82052  0.64179  0.09524  1.0000
  H   H156      1.0  0.82561  0.36024  0.57759  1.0000
  H   H157      1.0  0.80569  0.69507  0.05568  1.0000
  H   H158      1.0  0.81061  0.30689  0.53762  1.0000
  H   H159      1.0  0.60424  0.68058  0.92095  1.0000
  H   H160      1.0  0.60808  0.31636  0.44519  1.0000
  H   H161      1.0  0.61922  0.62747  0.96004  1.0000
  H   H162      1.0  0.62308  0.36971  0.48328  1.0000
  H   H163      1.0  0.66740  0.51890  0.13092  1.0000
  H   H164      1.0  0.66920  0.48000  0.63142  1.0000
  H   H165      1.0  0.16945  0.01825  0.12964  1.0000
  H   H166      1.0  0.16343  0.98122  0.62690  1.0000
  H   H167      1.0  0.16285  0.08850  0.29523  1.0000
  H   H168      1.0  0.15988  0.91018  0.79142  1.0000
  H   H169      1.0  0.70910  0.91470  0.85777  1.0000
  H   H170      1.0  0.71272  0.08439  0.36831  1.0000
  H   H171      1.0  0.21661  0.41463  0.86871  1.0000
  H   H172      1.0  0.21432  0.58615  0.36154  1.0000
  H   H173      1.0  0.60091  0.22803  0.20283  1.0000
  H   H174      1.0  0.10468  0.27017  0.70948  1.0000
  H   H175      1.0  0.09654  0.72633  0.20825  1.0000
  H   H176      1.0  0.25780  0.01866  0.23396  1.0000
  H   H177      1.0  0.25426  0.98064  0.73038  1.0000
  H   H178      1.0  0.76194  0.72410  0.26592  1.0000
  H   H179      1.0  0.75429  0.28330  0.76258  1.0000
  H   H180      1.0  0.27059  0.77655  0.77390  1.0000
  H   H181      1.0  0.77129  0.73257  0.13860  1.0000
  H   H182      1.0  0.76875  0.27362  0.63927  1.0000
  H   H183      1.0  0.27833  0.76899  0.64503  1.0000
  H   H184      1.0  0.71337  0.77710  0.57353  1.0000
  H   H185      1.0  0.71618  0.22103  0.07544  1.0000
  H   H186      1.0  0.22141  0.27612  0.58388  1.0000
  H   H187      1.0  0.20349  0.72562  0.06927  1.0000
  H   H188      1.0  0.61035  0.21789  0.07624  1.0000
  H   H189      1.0  0.11532  0.27983  0.58358  1.0000
  H   H190      1.0  0.10160  0.71779  0.07813  1.0000
  H   H191      1.0  0.81221  0.23417  0.20236  1.0000
  H   H192      1.0  0.31622  0.26240  0.71081  1.0000
  H   H193      1.0  0.30020  0.74174  0.19170  1.0000
  H   H194      1.0  0.52251  0.08502  0.90616  1.0000
  H   H195      1.0  0.52273  0.91742  0.42153  1.0000
  H   H196      1.0  0.70015  0.62778  0.64048  1.0000
  H   H197      1.0  0.69621  0.37678  0.15403  1.0000
  H   H198      1.0  0.19198  0.12361  0.65263  1.0000
  H   H199      1.0  0.19304  0.87542  0.14987  1.0000
  H   H200      1.0  0.55925  0.73675  0.13753  1.0000
  H   H201      1.0  0.55616  0.25956  0.63246  1.0000
  H   H202      1.0  0.06815  0.76141  0.64870  1.0000
  H   H203      1.0  0.65582  0.72614  0.26593  1.0000
  H   H204      1.0  0.64790  0.27642  0.75972  1.0000
  H   H205      1.0  0.16236  0.23319  0.27794  1.0000
  H   H206      1.0  0.16562  0.77229  0.77648  1.0000
  H   H207      1.0  0.03854  0.50202  0.09957  1.0000
  H   H208      1.0  0.99174  0.41635  0.98707  1.0000
  C   C1        1.0  0.38403  0.04550  0.84019  1.0000
  C   C2        1.0  0.38142  0.95434  0.33981  1.0000
  C   C3        1.0  0.79492  0.56769  0.83639  1.0000
  C   C4        1.0  0.79415  0.43112  0.33974  1.0000
  C   C5        1.0  0.29261  0.06775  0.83913  1.0000
  C   C6        1.0  0.28912  0.93166  0.33617  1.0000
  C   C7        1.0  0.42786  0.56777  0.74886  1.0000
  C   C8        1.0  0.42706  0.43137  0.25093  1.0000
  C   C9        1.0  0.92605  0.06617  0.75059  1.0000
  C   C10       1.0  0.92173  0.93228  0.24542  1.0000
  C   C11       1.0  0.49476  0.56616  0.77874  1.0000
  C   C12       1.0  0.49402  0.43198  0.28096  1.0000
  C   C13       1.0  0.99281  0.06537  0.77950  1.0000
  C   C14       1.0  0.98864  0.93350  0.27515  1.0000
  C   C15       1.0  0.52230  0.56722  0.72429  1.0000
  C   C16       1.0  0.52154  0.43068  0.22659  1.0000
  C   C17       1.0  0.01985  0.06755  0.72474  1.0000
  C   C18       1.0  0.01627  0.93199  0.22091  1.0000
  C   C19       1.0  0.48307  0.56757  0.63977  1.0000
  C   C20       1.0  0.48222  0.43123  0.14212  1.0000
  C   C21       1.0  0.98011  0.06849  0.64041  1.0000
  C   C22       1.0  0.97720  0.93179  0.13643  1.0000
  C   C23       1.0  0.41616  0.56662  0.60995  1.0000
  C   C24       1.0  0.41553  0.43368  0.11221  1.0000
  C   C25       1.0  0.91331  0.06666  0.61106  1.0000
  C   C26       1.0  0.91039  0.93336  0.10662  1.0000
  C   C27       1.0  0.38855  0.56789  0.66428  1.0000
  C   C28       1.0  0.38789  0.43237  0.16649  1.0000
  C   C29       1.0  0.88642  0.06662  0.66628  1.0000
  C   C30       1.0  0.88269  0.93238  0.16085  1.0000
  C   C31       1.0  0.47039  0.01556  0.84031  1.0000
  C   C32       1.0  0.46601  0.98294  0.32932  1.0000
  C   C33       1.0  0.71219  0.08859  0.56254  1.0000
  C   C34       1.0  0.70856  0.90936  0.05220  1.0000
  C   C35       1.0  0.68324  0.06471  0.58243  1.0000
  C   C36       1.0  0.67885  0.93252  0.07322  1.0000
  C   C37       1.0  0.72174  0.04172  0.63050  1.0000
  C   C38       1.0  0.71687  0.95544  0.12339  1.0000
  C   C39       1.0  0.78710  0.04253  0.65724  1.0000
  C   C40       1.0  0.78234  0.95533  0.15098  1.0000
  C   C41       1.0  0.81618  0.06613  0.63632  1.0000
  C   C42       1.0  0.81225  0.93235  0.12945  1.0000
  C   C43       1.0  0.77788  0.08912  0.58862  1.0000
  C   C44       1.0  0.77446  0.90940  0.07969  1.0000
  C   C45       1.0  0.51247  0.03964  0.86597  1.0000
  C   C46       1.0  0.50985  0.96019  0.36467  1.0000
  C   C47       1.0  0.11509  0.56617  0.54563  1.0000
  C   C48       1.0  0.11509  0.43539  0.04979  1.0000
  C   C49       1.0  0.61431  0.06356  0.55234  1.0000
  C   C50       1.0  0.60978  0.93326  0.04302  1.0000
  C   C51       1.0  0.82664  0.53438  0.51061  1.0000
  C   C52       1.0  0.82687  0.46639  0.01169  1.0000
  C   C53       1.0  0.32418  0.03467  0.51049  1.0000
  C   C54       1.0  0.32174  0.96510  0.00668  1.0000
  C   C55       1.0  0.23593  0.06540  0.39662  1.0000
  C   C56       1.0  0.23264  0.93385  0.89291  1.0000
  C   C57       1.0  0.28097  0.04271  0.42122  1.0000
  C   C58       1.0  0.27735  0.95693  0.91761  1.0000
  C   C59       1.0  0.72785  0.59920  0.04005  1.0000
  C   C60       1.0  0.73133  0.40040  0.54404  1.0000
  C   C61       1.0  0.23125  0.09905  0.04768  1.0000
  C   C62       1.0  0.22916  0.90147  0.54688  1.0000
  C   C63       1.0  0.08454  0.53733  0.87766  1.0000
  C   C64       1.0  0.08351  0.46282  0.38044  1.0000
  C   C65       1.0  0.58188  0.03801  0.87745  1.0000
  C   C66       1.0  0.57920  0.96146  0.37560  1.0000
  C   C67       1.0  0.40740  0.01852  0.82715  1.0000
  C   C68       1.0  0.40315  0.98001  0.31715  1.0000
  C   C69       1.0  0.94044  0.48830  0.05648  1.0000
  C   C70       1.0  0.04085  0.09766  0.58215  1.0000
  C   C71       1.0  0.03935  0.90450  0.07668  1.0000
  C   C72       1.0  0.00934  0.07134  0.58332  1.0000
  C   C73       1.0  0.00700  0.93017  0.07971  1.0000
  C   C74       1.0  0.00673  0.04832  0.53078  1.0000
  C   C75       1.0  0.00388  0.95384  0.02902  1.0000
  C   C76       1.0  0.03530  0.05146  0.47883  1.0000
  C   C77       1.0  0.03262  0.95195  0.97703  1.0000
  C   C78       1.0  0.06630  0.07780  0.47785  1.0000
  C   C79       1.0  0.06468  0.92629  0.97444  1.0000
  C   C80       1.0  0.06868  0.10095  0.52950  1.0000
  C   C81       1.0  0.06771  0.90250  0.02431  1.0000
  C   C82       1.0  0.91559  0.44024  0.99420  1.0000
  C   C83       1.0  0.76019  0.23892  0.27315  1.0000
  C   C84       1.0  0.26346  0.25836  0.78085  1.0000
  C   C85       1.0  0.25233  0.74357  0.26791  1.0000
  C   C86       1.0  0.12368  0.90835  0.30006  1.0000
  C   C87       1.0  0.08672  0.93164  0.25217  1.0000
  C   C88       1.0  0.11747  0.95479  0.23233  1.0000
  C   C89       1.0  0.18289  0.95472  0.25940  1.0000
  C   C90       1.0  0.22013  0.93141  0.30743  1.0000
  C   C91       1.0  0.18954  0.90812  0.32703  1.0000
  C   C92       1.0  0.72125  0.85669  0.86584  1.0000
  C   C93       1.0  0.72745  0.14160  0.38123  1.0000
  C   C94       1.0  0.66291  0.87162  0.82756  1.0000
  C   C95       1.0  0.66950  0.12750  0.33159  1.0000
  C   C96       1.0  0.60589  0.85527  0.80015  1.0000
  C   C97       1.0  0.61443  0.14477  0.29248  1.0000
  C   C98       1.0  0.60738  0.82510  0.81461  1.0000
  C   C99       1.0  0.61687  0.17502  0.30699  1.0000
  C   C100      1.0  0.66562  0.81034  0.85613  1.0000
  C   C101      1.0  0.67399  0.18883  0.36065  1.0000
  C   C102      1.0  0.72248  0.82638  0.87942  1.0000
  C   C103      1.0  0.72966  0.17191  0.39546  1.0000
  C   C104      1.0  0.02420  0.45869  0.04771  1.0000
  C   C105      1.0  0.25978  0.54243  0.27074  1.0000
  C   C106      1.0  0.25884  0.45843  0.77367  1.0000
  C   C107      1.0  0.75342  0.04243  0.27235  1.0000
  C   C108      1.0  0.75667  0.95672  0.76743  1.0000
  C   C109      1.0  0.67117  0.33397  0.23345  1.0000
  C   C110      1.0  0.16814  0.83340  0.23092  1.0000
  C   C111      1.0  0.66299  0.31044  0.27661  1.0000
  C   C112      1.0  0.16025  0.81002  0.27463  1.0000
  C   C113      1.0  0.67699  0.83506  0.10091  1.0000
  C   C114      1.0  0.33624  0.59647  0.85970  1.0000
  C   C115      1.0  0.33629  0.40460  0.36574  1.0000
  C   C116      1.0  0.83858  0.09290  0.86897  1.0000
  C   C117      1.0  0.34171  0.57311  0.91192  1.0000
  C   C118      1.0  0.34188  0.42888  0.41559  1.0000
  C   C119      1.0  0.84547  0.06900  0.92017  1.0000
  C   C120      1.0  0.37526  0.54777  0.91091  1.0000
  C   C121      1.0  0.37547  0.45398  0.41187  1.0000
  C   C122      1.0  0.87777  0.04377  0.91506  1.0000
  C   C123      1.0  0.40348  0.54580  0.85835  1.0000
  C   C124      1.0  0.40322  0.45481  0.35866  1.0000
  C   C125      1.0  0.90361  0.04256  0.85985  1.0000
  C   C126      1.0  0.39832  0.56915  0.80578  1.0000
  C   C127      1.0  0.39761  0.43061  0.30809  1.0000
  C   C128      1.0  0.89744  0.06654  0.80869  1.0000
  C   C129      1.0  0.36420  0.59441  0.80696  1.0000
  C   C130      1.0  0.36380  0.40550  0.31223  1.0000
  C   C131      1.0  0.86409  0.09159  0.81346  1.0000
  C   C132      1.0  0.78551  0.55581  0.06704  1.0000
  C   C133      1.0  0.75046  0.54329  0.98987  1.0000
  C   C134      1.0  0.76249  0.51479  0.97197  1.0000
  C   C135      1.0  0.80887  0.49724  0.03095  1.0000
  C   C136      1.0  0.83997  0.50880  0.11040  1.0000
  C   C137      1.0  0.82989  0.53772  0.12816  1.0000
  C   C138      1.0  0.42706  0.06949  0.86982  1.0000
  C   C139      1.0  0.42609  0.93180  0.37855  1.0000
  C   C140      1.0  0.30446  0.52862  0.41541  1.0000
  C   C141      1.0  0.30483  0.47247  0.91889  1.0000
  C   C142      1.0  0.79911  0.02891  0.41751  1.0000
  C   C143      1.0  0.80071  0.97116  0.91185  1.0000
  C   C144      1.0  0.30059  0.54899  0.35594  1.0000
  C   C145      1.0  0.29995  0.45206  0.85876  1.0000
  C   C146      1.0  0.79534  0.04894  0.35732  1.0000
  C   C147      1.0  0.79715  0.95059  0.85275  1.0000
  C   C148      1.0  0.33499  0.57572  0.38059  1.0000
  C   C149      1.0  0.33377  0.42535  0.88268  1.0000
  C   C150      1.0  0.83053  0.07549  0.38121  1.0000
  C   C151      1.0  0.83102  0.92394  0.87766  1.0000
  C   C152      1.0  0.37211  0.58180  0.46231  1.0000
  C   C153      1.0  0.37090  0.41925  0.96416  1.0000
  C   C154      1.0  0.86832  0.08175  0.46269  1.0000
  C   C155      1.0  0.86719  0.91805  0.95943  1.0000
  C   C156      1.0  0.37506  0.56166  0.52195  1.0000
  C   C157      1.0  0.37481  0.43934  0.02456  1.0000
  C   C158      1.0  0.87166  0.06186  0.52309  1.0000
  C   C159      1.0  0.86980  0.93833  0.01877  1.0000
  C   C160      1.0  0.34053  0.53507  0.49726  1.0000
  C   C161      1.0  0.34112  0.46601  0.00062  1.0000
  C   C162      1.0  0.83618  0.03547  0.49907  1.0000
  C   C163      1.0  0.83584  0.96489  0.99384  1.0000
  C   C164      1.0  0.67081  0.73932  0.06590  1.0000
  C   C165      1.0  0.67103  0.26065  0.56603  1.0000
  C   C166      1.0  0.17802  0.76034  0.57429  1.0000
  C   C167      1.0  0.73246  0.34471  0.25185  1.0000
  C   C168      1.0  0.22881  0.84565  0.25293  1.0000
  C   C169      1.0  0.77698  0.30772  0.35735  1.0000
  C   C170      1.0  0.27325  0.81089  0.36393  1.0000
  C   C171      1.0  0.71572  0.29698  0.33903  1.0000
  C   C172      1.0  0.21271  0.79841  0.34141  1.0000
  C   C173      1.0  0.61308  0.84389  0.07171  1.0000
  C   C174      1.0  0.07798  0.46810  0.75313  1.0000
  C   C175      1.0  0.56671  0.96805  0.75276  1.0000
  C   C176      1.0  0.57365  0.03054  0.25182  1.0000
  C   C177      1.0  0.07057  0.49680  0.77481  1.0000
  C   C178      1.0  0.56086  0.99684  0.77488  1.0000
  C   C179      1.0  0.56587  0.00187  0.27318  1.0000
  C   C180      1.0  0.10030  0.50640  0.85618  1.0000
  C   C181      1.0  0.59651  0.00708  0.85495  1.0000
  C   C182      1.0  0.59555  0.99239  0.35449  1.0000
  C   C183      1.0  0.14282  0.48710  0.91373  1.0000
  C   C184      1.0  0.64297  0.98844  0.90977  1.0000
  C   C185      1.0  0.63805  0.01187  0.41236  1.0000
  C   C186      1.0  0.15233  0.45871  0.89204  1.0000
  C   C187      1.0  0.65071  0.95989  0.88727  1.0000
  C   C188      1.0  0.64772  0.04031  0.39100  1.0000
  C   C189      1.0  0.11840  0.44821  0.81228  1.0000
  C   C190      1.0  0.61132  0.94879  0.80957  1.0000
  C   C191      1.0  0.61427  0.05054  0.31115  1.0000
  C   C192      1.0  0.04770  0.42114  0.27189  1.0000
  C   C193      1.0  0.09387  0.44117  0.32270  1.0000
  C   C194      1.0  0.15310  0.44173  0.32030  1.0000
  C   C195      1.0  0.16692  0.42197  0.27272  1.0000
  C   C196      1.0  0.12086  0.40133  0.22328  1.0000
  C   C197      1.0  0.06069  0.40151  0.22270  1.0000
  C   C198      1.0  0.28803  0.02640  0.36053  1.0000
  C   C199      1.0  0.28400  0.97335  0.85692  1.0000
  C   C200      1.0  0.89569  0.46571  0.02078  1.0000
  C   C201      1.0  0.78538  0.33120  0.31448  1.0000
  C   C202      1.0  0.28141  0.83415  0.32036  1.0000
  C   C203      1.0  0.69320  0.81225  0.06322  1.0000
  C   C204      1.0  0.61122  0.74049  0.06654  1.0000
  C   C205      1.0  0.61129  0.25668  0.56526  1.0000
  C   C206      1.0  0.11891  0.75847  0.57613  1.0000
  C   C207      1.0  0.81970  0.55591  0.57112  1.0000
  C   C208      1.0  0.31677  0.05667  0.56974  1.0000
  C   C209      1.0  0.86959  0.57386  0.62446  1.0000
  C   C210      1.0  0.36589  0.07523  0.62176  1.0000
  C   C211      1.0  0.86026  0.59364  0.67617  1.0000
  C   C212      1.0  0.35601  0.09495  0.67323  1.0000
  C   C213      1.0  0.80021  0.59674  0.67452  1.0000
  C   C214      1.0  0.29631  0.09728  0.67306  1.0000
  C   C215      1.0  0.75089  0.57736  0.62512  1.0000
  C   C216      1.0  0.24773  0.07740  0.62460  1.0000
  C   C217      1.0  0.76114  0.55716  0.57518  1.0000
  C   C218      1.0  0.25845  0.05743  0.57462  1.0000
  C   C219      1.0  0.59493  0.86705  0.11232  1.0000
  C   C220      1.0  0.60302  0.13155  0.61725  1.0000
  C   C221      1.0  0.09885  0.36885  0.11495  1.0000
  C   C222      1.0  0.10381  0.63227  0.62006  1.0000
  C   C223      1.0  0.67044  0.93230  0.48957  1.0000
  C   C224      1.0  0.62271  0.95378  0.46509  1.0000
  C   C225      1.0  0.61352  0.96893  0.52585  1.0000
  C   C226      1.0  0.65164  0.96373  0.60767  1.0000
  C   C227      1.0  0.70117  0.94287  0.63187  1.0000
  C   C228      1.0  0.70867  0.92674  0.57155  1.0000
  C   C229      1.0  0.10355  0.02694  0.97230  1.0000
  C   C230      1.0  0.10139  0.97168  0.46885  1.0000
  C   C231      1.0  0.06792  0.03353  0.89065  1.0000
  C   C232      1.0  0.06553  0.96507  0.38704  1.0000
  C   C233      1.0  0.03389  0.06008  0.86706  1.0000
  C   C234      1.0  0.02984  0.93877  0.36286  1.0000
  C   C235      1.0  0.03674  0.07998  0.92733  1.0000
  C   C236      1.0  0.03163  0.91907  0.42276  1.0000
  C   C237      1.0  0.07324  0.07371  0.00882  1.0000
  C   C238      1.0  0.06813  0.92538  0.50442  1.0000
  C   C239      1.0  0.10741  0.04708  0.03248  1.0000
  C   C240      1.0  0.10358  0.95184  0.52869  1.0000
  C   C241      1.0  0.66370  0.77326  0.95479  1.0000
  C   C242      1.0  0.66853  0.22593  0.45763  1.0000
  C   C243      1.0  0.16962  0.27386  0.96223  1.0000
  C   C244      1.0  0.16968  0.72668  0.46124  1.0000
  C   C245      1.0  0.67665  0.74490  0.98988  1.0000
  C   C246      1.0  0.67971  0.25456  0.49205  1.0000
  C   C247      1.0  0.18065  0.24561  0.99829  1.0000
  C   C248      1.0  0.18272  0.75500  0.49739  1.0000
  C   C249      1.0  0.69441  0.72204  0.95211  1.0000
  C   C250      1.0  0.69861  0.27741  0.45525  1.0000
  C   C251      1.0  0.19884  0.22214  0.96279  1.0000
  C   C252      1.0  0.19944  0.77826  0.45967  1.0000
  C   C253      1.0  0.69786  0.72747  0.87875  1.0000
  C   C254      1.0  0.70461  0.27184  0.38355  1.0000
  C   C255      1.0  0.20499  0.22690  0.89085  1.0000
  C   C256      1.0  0.20264  0.77313  0.38605  1.0000
  C   C257      1.0  0.68607  0.75605  0.84436  1.0000
  C   C258      1.0  0.69421  0.24317  0.34976  1.0000
  C   C259      1.0  0.19633  0.25536  0.85648  1.0000
  C   C260      1.0  0.19131  0.74464  0.35101  1.0000
  C   C261      1.0  0.66960  0.77902  0.88320  1.0000
  C   C262      1.0  0.67696  0.22015  0.38767  1.0000
  C   C263      1.0  0.17905  0.27892  0.89274  1.0000
  C   C264      1.0  0.17535  0.72132  0.38926  1.0000
  C   C265      1.0  0.56621  0.82952  0.00357  1.0000
  C   C266      1.0  0.58275  0.80667  0.96598  1.0000
  C   C267      1.0  0.77343  0.65065  0.05765  1.0000
  C   C268      1.0  0.77835  0.35027  0.54936  1.0000
  C   C269      1.0  0.76478  0.68025  0.03528  1.0000
  C   C270      1.0  0.76966  0.32066  0.52667  1.0000
  C   C271      1.0  0.70400  0.69127  0.98430  1.0000
  C   C272      1.0  0.70825  0.30821  0.48742  1.0000
  C   C273      1.0  0.65150  0.67211  0.95923  1.0000
  C   C274      1.0  0.65566  0.32593  0.47438  1.0000
  C   C275      1.0  0.65991  0.64246  0.98124  1.0000
  C   C276      1.0  0.66409  0.35569  0.49617  1.0000
  C   C277      1.0  0.72102  0.63114  0.02926  1.0000
  C   C278      1.0  0.72537  0.36840  0.53272  1.0000
  C   C279      1.0  0.20277  0.05354  0.25421  1.0000
  C   C280      1.0  0.19913  0.94555  0.75041  1.0000
  C   C281      1.0  0.64809  0.54145  0.11835  1.0000
  C   C282      1.0  0.64866  0.45756  0.61949  1.0000
  C   C283      1.0  0.14880  0.04055  0.11727  1.0000
  C   C284      1.0  0.14439  0.95853  0.61383  1.0000
  C   C285      1.0  0.19775  0.07083  0.31447  1.0000
  C   C286      1.0  0.19442  0.92817  0.81066  1.0000
  C   C287      1.0  0.66258  0.90382  0.82513  1.0000
  C   C288      1.0  0.66744  0.09528  0.33023  1.0000
  C   C289      1.0  0.17113  0.40351  0.83138  1.0000
  C   C290      1.0  0.16777  0.59673  0.32836  1.0000
  C   C291      1.0  0.64627  0.79769  0.99532  1.0000
  C   C292      1.0  0.64709  0.22951  0.20244  1.0000
  C   C293      1.0  0.15096  0.26850  0.70956  1.0000
  C   C294      1.0  0.14102  0.72986  0.20438  1.0000
  C   C295      1.0  0.25002  0.03151  0.27875  1.0000
  C   C296      1.0  0.24624  0.96790  0.77511  1.0000
  C   C297      1.0  0.71954  0.72863  0.21011  1.0000
  C   C298      1.0  0.71404  0.27593  0.70726  1.0000
  C   C299      1.0  0.22799  0.77145  0.71856  1.0000
  C   C300      1.0  0.72489  0.73332  0.13848  1.0000
  C   C301      1.0  0.72226  0.27044  0.63787  1.0000
  C   C302      1.0  0.23243  0.76716  0.64613  1.0000
  C   C303      1.0  0.71190  0.22557  0.13082  1.0000
  C   C304      1.0  0.21655  0.27178  0.63891  1.0000
  C   C305      1.0  0.20112  0.72943  0.12618  1.0000
  C   C306      1.0  0.70076  0.23720  0.27424  1.0000
  C   C307      1.0  0.20398  0.26068  0.78149  1.0000
  C   C308      1.0  0.19510  0.73928  0.27356  1.0000
  C   C309      1.0  0.65249  0.22382  0.13123  1.0000
  C   C310      1.0  0.15704  0.27391  0.63876  1.0000
  C   C311      1.0  0.14389  0.72508  0.13118  1.0000
  C   C312      1.0  0.76574  0.23305  0.20208  1.0000
  C   C313      1.0  0.26973  0.26400  0.71018  1.0000
  C   C314      1.0  0.25535  0.73859  0.19488  1.0000
  C   C315      1.0  0.48999  0.06631  0.88326  1.0000
  C   C316      1.0  0.48889  0.93496  0.39113  1.0000
  C   C317      1.0  0.74037  0.63243  0.69984  1.0000
  C   C318      1.0  0.74010  0.36904  0.20506  1.0000
  C   C319      1.0  0.23542  0.13039  0.70627  1.0000
  C   C320      1.0  0.23622  0.86932  0.20437  1.0000
  C   C321      1.0  0.60580  0.73576  0.13810  1.0000
  C   C322      1.0  0.60289  0.26247  0.63437  1.0000
  C   C323      1.0  0.11436  0.76290  0.64838  1.0000
  C   C324      1.0  0.65998  0.72982  0.21016  1.0000
  C   C325      1.0  0.65431  0.27203  0.70574  1.0000
  C   C326      1.0  0.16898  0.76916  0.71997  1.0000
  C   C327      1.0  0.00346  0.48474  0.06983  1.0000
  C   C328      1.0  0.97826  0.43659  0.00729  1.0000
  N   N1        1.0  0.11904  0.41820  0.79361  1.0000
  N   N2        1.0  0.11544  0.58167  0.29478  1.0000
  N   N3        1.0  0.61033  0.91868  0.79152  1.0000
  N   N4        1.0  0.61526  0.08044  0.29214  1.0000
  N   N5        1.0  0.24717  0.56228  0.21553  1.0000
  N   N6        1.0  0.24443  0.43830  0.71843  1.0000
  N   N7        1.0  0.74127  0.06215  0.21685  1.0000
  N   N8        1.0  0.74280  0.93647  0.71267  1.0000
  N   N9        1.0  0.08936  0.54546  0.56955  1.0000
  N   N10       1.0  0.08964  0.45698  0.07086  1.0000
  N   N11       1.0  0.58739  0.04170  0.57026  1.0000
  N   N12       1.0  0.58374  0.95460  0.06397  1.0000
  N   N13       1.0  0.82207  0.54491  0.82315  1.0000
  N   N14       1.0  0.82088  0.45323  0.32247  1.0000
  N   N15       1.0  0.31889  0.04623  0.81910  1.0000
  N   N16       1.0  0.31621  0.95365  0.31893  1.0000
  N   N17       1.0  0.66094  0.56101  0.17477  1.0000
  N   N18       1.0  0.66096  0.43829  0.67608  1.0000
  N   N19       1.0  0.16089  0.06008  0.17351  1.0000
  N   N20       1.0  0.15744  0.93882  0.66953  1.0000
  N   N21       1.0  0.78569  0.41391  0.57663  1.0000
  N   N22       1.0  0.78200  0.58624  0.07960  1.0000
  N   N23       1.0  0.28317  0.91512  0.58295  1.0000
  N   N24       1.0  0.28538  0.08559  0.07953  1.0000
  N   N25       1.0  0.14551  0.62055  0.68598  1.0000
  N   N26       1.0  0.13964  0.38054  0.18201  1.0000
  N   N27       1.0  0.64360  0.12077  0.68544  1.0000
  N   N28       1.0  0.63629  0.87928  0.17803  1.0000
  N   N29       1.0  0.79387  0.61871  0.72417  1.0000
  N   N30       1.0  0.79545  0.38009  0.22154  1.0000
  N   N31       1.0  0.29045  0.11911  0.72334  1.0000
  N   N32       1.0  0.29081  0.88156  0.22279  1.0000
  C   C329      1.0  0.58298  0.53008  0.90703  1.0000
  C   C330      1.0  0.54175  0.55367  0.87140  1.0000
  C  Sn1       1.0  0.53553  0.57608  0.91960  1.0000
  C  Sn2       1.0  0.22224  0.57330  0.00504  1.0000
  C   C331      1.0  0.26339  0.54962  0.04009  1.0000
  C   C332      1.0  0.61832  0.52880  0.99129  1.0000
  H   H209      1.0  0.58753  0.51283  0.86928  1.0000
  O  Te1       1.0  0.49411  0.59948  0.88301  1.0000
  O  Te2       1.0  0.21696  0.59541  0.05464  1.0000
  H   H210      1.0  0.30119  0.50906  0.01889  1.0000
  Mg  Mg1       1.0  0.50328  0.62428  0.97629  1.0000
  C   C333      1.0  0.32820  0.07313  0.01090  1.0000
  C   C334      1.0  0.63528  0.05136  0.97200  1.0000
  C  Sn3       1.0  0.27262  0.02868  0.01723  1.0000
  C  Sn4       1.0  0.30169  0.03088  0.10298  1.0000
  C   C335      1.0  0.34360  0.05424  0.14131  1.0000
  C   C336      1.0  0.35687  0.07531  0.09547  1.0000
  H   H211      1.0  0.68752  0.09093  0.97543  1.0000
  O  Te3       1.0  0.57965  0.00707  0.97741  1.0000
  O  Te4       1.0  0.28894  0.01001  0.14966  1.0000
  H   H212      1.0  0.38935  0.09332  0.12559  1.0000
  Mg  Mg2       1.0  0.23631  0.98258  0.06747  1.0000
  C   C337      1.0  0.17437  0.57139  0.78515  1.0000
  C   C338      1.0  0.13710  0.59399  0.73524  1.0000
  C  Sn5       1.0  0.07701  0.59987  0.73029  1.0000
  C  Sn6       1.0  0.05394  0.58278  0.77624  1.0000
  C   C339      1.0  0.09162  0.56024  0.82603  1.0000
  C   C340      1.0  0.15167  0.55453  0.83051  1.0000
  H   H213      1.0  0.22085  0.56698  0.78865  1.0000
  O  Te5       1.0  0.04038  0.62253  0.68010  1.0000
  O  Te6       1.0  0.99407  0.58820  0.77245  1.0000
  H   H214      1.0  0.18054  0.53704  0.86920  1.0000
  Mg  Mg3       1.0  0.96188  0.62146  0.69531  1.0000
  C   C341      1.0  0.27396  0.46078  0.15313  1.0000
  C   C342      1.0  0.31181  0.43853  0.14482  1.0000
  C  Sn7       1.0  0.28367  0.41334  0.09858  1.0000
  C  Sn8       1.0  0.21636  0.41045  0.06000  1.0000
  C   C343      1.0  0.17891  0.43285  0.06864  1.0000
  C   C344      1.0  0.20757  0.45795  0.11508  1.0000
  H   H215      1.0  0.29613  0.48021  0.18902  1.0000
  O  Te7       1.0  0.32219  0.39131  0.09093  1.0000
  O  Te8       1.0  0.18698  0.38552  0.01341  1.0000
  H   H216      1.0  0.17825  0.47518  0.12146  1.0000
  Mg  Mg4       1.0  0.25983  0.36148  0.02108  1.0000
  C   C345      1.0  0.94980  0.56908  0.89533  1.0000
  C   C346      1.0  0.89714  0.55089  0.85202  1.0000
  C  Sn9       1.0  0.90454  0.52434  0.81841  1.0000
  C  Sn10      1.0  0.96584  0.51591  0.82846  1.0000
  C   C347      1.0  0.01823  0.53426  0.87194  1.0000
  C   C348      1.0  0.01029  0.56078  0.90530  1.0000
  H   H217      1.0  0.94366  0.58959  0.92119  1.0000
  O  Te9       1.0  0.85142  0.50643  0.77529  1.0000
  O  Te10      1.0  0.97459  0.48950  0.79552  1.0000
  H   H218      1.0  0.05107  0.57485  0.93888  1.0000
  Mg  Mg5       1.0  0.88756  0.47255  0.74178  1.0000
  C   C349      1.0  0.64483  0.40297  0.31417  1.0000
  C   C350      1.0  0.60074  0.42505  0.27339  1.0000
  C  Sn11      1.0  0.61988  0.45048  0.24710  1.0000
  C  Sn12      1.0  0.68438  0.45380  0.26196  1.0000
  C   C351      1.0  0.72811  0.43157  0.30275  1.0000
  C   C352      1.0  0.70845  0.40622  0.32883  1.0000
  H   H219      1.0  0.62961  0.38335  0.33431  1.0000
  O  Te11      1.0  0.57523  0.47233  0.20648  1.0000
  O  Te12      1.0  0.70479  0.47898  0.23631  1.0000
  H   H220      1.0  0.74258  0.38912  0.36035  1.0000
  Mg  Mg6       1.0  0.62611  0.50263  0.18341  1.0000
  C   C353      1.0  0.53084  0.45479  0.99214  1.0000
  C   C354      1.0  0.56778  0.43175  0.98555  1.0000
  C  Sn13      1.0  0.22533  0.40409  0.02857  1.0000
  C  Sn14      1.0  0.19434  0.40099  0.07907  1.0000
  C   C355      1.0  0.15745  0.42416  0.08522  1.0000
  C   C356      1.0  0.15115  0.45026  0.04191  1.0000
  H   H221      1.0  0.52594  0.47497  0.95861  1.0000
  O  Te13      1.0  0.26244  0.38129  0.02131  1.0000
  O  Te14      1.0  0.20014  0.37506  0.12272  1.0000
  H   H222      1.0  0.12251  0.46809  0.04699  1.0000
  Mg  Mg7       1.0  0.25591  0.35024  0.09290  1.0000
  C   C357      1.0  0.58025  0.46891  0.40856  1.0000
  C   C358      1.0  0.54682  0.44297  0.37327  1.0000
  C  Sn15      1.0  0.54126  0.42054  0.42174  1.0000
  C  Sn16      1.0  0.56972  0.42420  0.50711  1.0000
  C   C359      1.0  0.60302  0.45025  0.54183  1.0000
  C   C360      1.0  0.60831  0.47255  0.49276  1.0000
  H   H223      1.0  0.58431  0.48618  0.37060  1.0000
  O  Te15      1.0  0.50772  0.39476  0.38548  1.0000
  O  Te16      1.0  0.56488  0.40214  0.55697  1.0000
  H   H224      1.0  0.63416  0.49264  0.52011  1.0000
  Mg  Mg8       1.0  0.51430  0.37101  0.47904  1.0000
  C   C361      1.0  0.65441  0.68808  0.74232  1.0000
  C   C362      1.0  0.69562  0.69950  0.81831  1.0000
  C  Sn17      1.0  0.75801  0.68916  0.85872  1.0000
  C  Sn18      1.0  0.77942  0.66699  0.82223  1.0000
  C   C363      1.0  0.73783  0.65572  0.74616  1.0000
  C   C364      1.0  0.67548  0.66621  0.70626  1.0000
  H   H225      1.0  0.60618  0.69621  0.71142  1.0000
  O  Te17      1.0  0.79856  0.70081  0.93463  1.0000
  O  Te18      1.0  0.84154  0.65627  0.86127  1.0000
  H   H226      1.0  0.64360  0.65738  0.64740  1.0000
  Mg  Mg9       1.0  0.87892  0.67906  0.96387  1.0000
  C   C365      1.0  0.28583  0.18465  0.86118  1.0000
  C   C366      1.0  0.23072  0.19974  0.85033  1.0000
  C  Sn19      1.0  0.17125  0.19036  0.79140  1.0000
  C  Sn20      1.0  0.16701  0.16540  0.74253  1.0000
  C   C367      1.0  0.22241  0.15045  0.75390  1.0000
  C   C368      1.0  0.28169  0.16003  0.81303  1.0000
  H   H227      1.0  0.33169  0.19206  0.90695  1.0000
  O  Te19      1.0  0.11667  0.20569  0.78134  1.0000
  O  Te20      1.0  0.10816  0.15554  0.68321  1.0000
  H   H228      1.0  0.32434  0.14833  0.82145  1.0000
  Mg  Mg10      1.0  0.04738  0.18376  0.69247  1.0000
  C   C369      1.0  0.99048  0.51218  0.56755  1.0000
  C   C370      1.0  0.01841  0.53594  0.54665  1.0000
  C  Sn21      1.0  0.98285  0.56116  0.51121  1.0000
  C  Sn22      1.0  0.91816  0.56257  0.49653  1.0000
  C   C371      1.0  0.89067  0.53869  0.51771  1.0000
  C   C372      1.0  0.92668  0.51356  0.55312  1.0000
  H   H229      1.0  0.01835  0.49274  0.59498  1.0000
  O  Te21      1.0  0.01149  0.58469  0.49067  1.0000
  O  Te22      1.0  0.88153  0.58751  0.46121  1.0000
  H   H230      1.0  0.90506  0.49517  0.56935  1.0000
  Mg  Mg11      1.0  0.94193  0.61390  0.44390  1.0000
  C   C373      1.0  0.66608  0.06198  0.81418  1.0000
  C   C374      1.0  0.61060  0.05942  0.82427  1.0000
  C  Sn23      1.0  0.55804  0.07717  0.77950  1.0000
  C  Sn24      1.0  0.56123  0.09785  0.72361  1.0000
  C   C375      1.0  0.61694  0.10022  0.71391  1.0000
  C   C376      1.0  0.66926  0.08235  0.75905  1.0000
  H   H231      1.0  0.70655  0.04814  0.84907  1.0000
  O  Te23      1.0  0.50299  0.07434  0.79035  1.0000
  O  Te24      1.0  0.50940  0.11585  0.67805  1.0000
  H   H232      1.0  0.71220  0.08433  0.75118  1.0000
  Mg  Mg12      1.0  0.44490  0.10380  0.71432  1.0000
  C   C377      1.0  0.87677  0.42040  0.13871  1.0000
  C   C378      1.0  0.83337  0.43977  0.08245  1.0000
  C  Sn25      1.0  0.77168  0.44218  0.07528  1.0000
  C  Sn26      1.0  0.75323  0.42484  0.12546  1.0000
  C   C379      1.0  0.79701  0.40553  0.18160  1.0000
  C   C380      1.0  0.85862  0.40329  0.18825  1.0000
  H   H233      1.0  0.92445  0.41867  0.14389  1.0000
  O  Te25      1.0  0.72891  0.46164  0.01874  1.0000
  O  Te26      1.0  0.69187  0.42681  0.11958  1.0000
  H   H234      1.0  0.89222  0.38830  0.23185  1.0000
  Mg  Mg13      1.0  0.65068  0.45651  0.03335  1.0000
  C   C381      1.0  0.42242  0.93251  0.98998  1.0000
  C   C382      1.0  0.04559  0.95495  0.01013  1.0000
  C  Sn27      1.0  0.08106  0.98058  0.04363  1.0000
  C  Sn28      1.0  0.14549  0.98222  0.05713  1.0000
  C   C383      1.0  0.17279  0.95817  0.03672  1.0000
  C   C384      1.0  0.13687  0.93263  0.00325  1.0000
  H   H235      1.0  0.39462  0.91275  0.96404  1.0000
  O  Te27      1.0  0.04464  0.00428  0.06344  1.0000
  O  Te28      1.0  0.17405  0.00757  0.09051  1.0000
  H   H236      1.0  0.50744  0.91560  0.98761  1.0000
  Mg  Mg14      1.0  0.11398  0.03405  0.10749  1.0000
  C   C385      1.0  0.07581  0.31399  0.96720  1.0000
  C   C386      1.0  0.13612  0.30232  0.98767  1.0000
  C  Sn29      1.0  0.83964  0.31049  0.05750  1.0000
  C  Sn30      1.0  0.83157  0.33224  0.10768  1.0000
  C   C387      1.0  0.77103  0.34376  0.08671  1.0000
  C   C388      1.0  0.71872  0.33394  0.01667  1.0000
  H   H237      1.0  0.03532  0.30638  0.91304  1.0000
  O  Te29      1.0  0.89956  0.29861  0.07704  1.0000
  O  Te30      1.0  0.88333  0.34229  0.17783  1.0000
  H   H238      1.0  0.67202  0.34297  0.00087  1.0000
  Mg  Mg15      1.0  0.95549  0.31940  0.17886  1.0000
  C   C389      1.0  0.25196  0.97854  0.46582  1.0000
  C   C390      1.0  0.29114  0.00073  0.51658  1.0000
  C  Sn31      1.0  0.33073  0.99480  0.59803  1.0000
  C  Sn32      1.0  0.33101  0.96611  0.62905  1.0000
  C   C391      1.0  0.29167  0.94407  0.57776  1.0000
  C   C392      1.0  0.25222  0.95024  0.49636  1.0000
  H   H239      1.0  0.22146  0.98331  0.40283  1.0000
  O  Te31      1.0  0.36160  0.01722  0.64792  1.0000
  O  Te32      1.0  0.37013  0.95958  0.71021  1.0000
  H   H240      1.0  0.22192  0.93305  0.45706  1.0000
  Mg  Mg16      1.0  0.41453  0.99752  0.75421  1.0000
  C   C393      1.0  0.28483  0.84377  0.55981  1.0000
  C   C394      1.0  0.23830  0.86556  0.54011  1.0000
  C  Sn33      1.0  0.17382  0.85809  0.49856  1.0000
  C  Sn34      1.0  0.15573  0.82824  0.47641  1.0000
  C   C395      1.0  0.20264  0.80659  0.49645  1.0000
  C   C396      1.0  0.26703  0.81431  0.53802  1.0000
  H   H241      1.0  0.33465  0.84974  0.59201  1.0000
  O  Te33      1.0  0.12795  0.88014  0.47932  1.0000
  O  Te34      1.0  0.09162  0.82016  0.43488  1.0000
  H   H242      1.0  0.30304  0.79743  0.55331  1.0000
  Mg  Mg17      1.0  0.04672  0.85816  0.42224  1.0000
  C   C397      1.0  0.37201  0.92098  0.13843  1.0000
  C   C398      1.0  0.32794  0.93906  0.07854  1.0000
  C  Sn35      1.0  0.26540  0.94082  0.06866  1.0000
  C  Sn36      1.0  0.24678  0.92414  0.11980  1.0000
  C   C399      1.0  0.29124  0.90613  0.17957  1.0000
  C   C400      1.0  0.35369  0.90453  0.18891  1.0000
  H   H243      1.0  0.42033  0.91975  0.14569  1.0000
  O  Te35      1.0  0.22197  0.95899  0.00850  1.0000
  O  Te36      1.0  0.18459  0.92550  0.11126  1.0000
  H   H244      1.0  0.38781  0.89054  0.23532  1.0000
  Mg  Mg18      1.0  0.14271  0.95343  0.02048  1.0000
  C   C401      1.0  0.15560  0.51920  0.41801  1.0000
  C   C402      1.0  0.10945  0.49811  0.37369  1.0000
  C  Sn37      1.0  0.06684  0.50341  0.29295  1.0000
  C  Sn38      1.0  0.07064  0.53035  0.25605  1.0000
  C   C403      1.0  0.11701  0.55130  0.30089  1.0000
  C   C404      1.0  0.15940  0.54577  0.38165  1.0000
  H   H245      1.0  0.18842  0.51491  0.48048  1.0000
  O  Te37      1.0  0.02100  0.48211  0.24956  1.0000
  O  Te38      1.0  0.02866  0.53622  0.17544  1.0000
  H   H246      1.0  0.19515  0.56209  0.41593  1.0000
  Mg  Mg19      1.0  0.97447  0.50031  0.14140  1.0000
  C   C405      1.0  0.21004  0.57363  0.05354  1.0000
  C   C406      1.0  0.20507  0.56184  0.12056  1.0000
  C  Sn39      1.0  0.16051  0.53963  0.11017  1.0000
  C  Sn40      1.0  0.12025  0.52906  0.03114  1.0000
  C   C407      1.0  0.47471  0.54246  0.96449  1.0000
  C   C408      1.0  0.51945  0.56469  0.97557  1.0000
  H   H247      1.0  0.24468  0.59081  0.06211  1.0000
  O  Te39      1.0  0.15616  0.52810  0.17779  1.0000
  O  Te40      1.0  0.07531  0.50686  0.01902  1.0000
  H   H248      1.0  0.52332  0.57380  0.92367  1.0000
  Mg  Mg20      1.0  0.08746  0.49815  0.13023  1.0000
  C   C409      1.0  0.84708  0.90280  0.31356  1.0000
  C   C410      1.0  0.87984  0.92581  0.29776  1.0000
  C  Sn41      1.0  0.89284  0.95204  0.34247  1.0000
  C  Sn42      1.0  0.87263  0.95522  0.40411  1.0000
  C   C411      1.0  0.83993  0.93206  0.41949  1.0000
  C   C412      1.0  0.82715  0.90591  0.37438  1.0000
  H   H249      1.0  0.83722  0.88256  0.27869  1.0000
  O  Te41      1.0  0.92561  0.97482  0.32587  1.0000
  O  Te42      1.0  0.88502  0.98120  0.44973  1.0000
  H   H250      1.0  0.80182  0.88809  0.38666  1.0000
  Mg  Mg21      1.0  0.92323  0.00596  0.40443  1.0000
  C   C413      1.0  0.70103  0.18634  0.59222  1.0000
  C   C414      1.0  0.66465  0.19837  0.51563  1.0000
  C  Sn43      1.0  0.60188  0.18897  0.46931  1.0000
  C  Sn44      1.0  0.57517  0.16713  0.50042  1.0000
  C   C415      1.0  0.61196  0.15526  0.57714  1.0000
  C   C416      1.0  0.67472  0.16481  0.62296  1.0000
  H   H251      1.0  0.74958  0.19375  0.62770  1.0000
  O  Te43      1.0  0.56620  0.20120  0.39289  1.0000
  O  Te44      1.0  0.51256  0.15735  0.45542  1.0000
  H   H252      1.0  0.70287  0.15552  0.68228  1.0000
  Mg  Mg22      1.0  0.48302  0.18067  0.35452  1.0000
  C   C417      1.0  0.75116  0.47907  0.46563  1.0000
  C   C418      1.0  0.79317  0.50041  0.51668  1.0000
  C  Sn45      1.0  0.83588  0.49320  0.59606  1.0000
  C  Sn46      1.0  0.83645  0.46407  0.62468  1.0000
  C   C419      1.0  0.79427  0.44289  0.57312  1.0000
  C   C420      1.0  0.75172  0.45034  0.49380  1.0000
  H   H253      1.0  0.71826  0.48483  0.40424  1.0000
  O  Te45      1.0  0.87750  0.51478  0.64626  1.0000
  O  Te46      1.0  0.87866  0.45627  0.70374  1.0000
  H   H254      1.0  0.71923  0.43381  0.45428  1.0000
  Mg  Mg23      1.0  0.92614  0.49343  0.74913  1.0000
  C   C421      1.0  0.10346  0.66868  0.30653  1.0000
  C   C422      1.0  0.15575  0.68687  0.35141  1.0000
  C  Sn47      1.0  0.21746  0.67554  0.38352  1.0000
  C  Sn48      1.0  0.22683  0.64544  0.37032  1.0000
  C   C423      1.0  0.17421  0.62743  0.32528  1.0000
  C   C424      1.0  0.11267  0.63900  0.29346  1.0000
  H   H255      1.0  0.05585  0.67763  0.28186  1.0000
  O  Te47      1.0  0.26917  0.69401  0.42824  1.0000
  O  Te48      1.0  0.28799  0.63354  0.40169  1.0000
  H   H256      1.0  0.07219  0.62492  0.25866  1.0000
  Mg  Mg24      1.0  0.34330  0.66755  0.45862  1.0000
  C   C425      1.0  0.92169  0.48635  0.32975  1.0000
  C   C426      1.0  0.89035  0.46104  0.33716  1.0000
  C  Sn49      1.0  0.92430  0.43507  0.36862  1.0000
  C  Sn50      1.0  0.99085  0.43449  0.39310  1.0000
  C   C427      1.0  0.02177  0.45993  0.38549  1.0000
  C   C428      1.0  0.98734  0.48580  0.35390  1.0000
  H   H257      1.0  0.89506  0.50636  0.30535  1.0000
  O  Te49      1.0  0.89224  0.40999  0.37558  1.0000
  O  Te50      1.0  0.02594  0.40884  0.42478  1.0000
  H   H258      1.0  0.01163  0.50539  0.34822  1.0000
  Mg  Mg25      1.0  0.96083  0.38032  0.42232  1.0000
  C   C429      1.0  0.20539  0.68263  0.58642  1.0000
  C   C430      1.0  0.16635  0.69774  0.51570  1.0000
  C  Sn51      1.0  0.10095  0.69196  0.47674  1.0000
  C  Sn52      1.0  0.07428  0.67065  0.50934  1.0000
  C   C431      1.0  0.11374  0.65566  0.58015  1.0000
  C   C432      1.0  0.17912  0.66161  0.61863  1.0000
  H   H259      1.0  0.25597  0.68724  0.61623  1.0000
  O  Te51      1.0  0.06264  0.70725  0.40612  1.0000
  O  Te52      1.0  0.00907  0.66444  0.47164  1.0000
  H   H260      1.0  0.20933  0.64992  0.67342  1.0000
  Mg  Mg26      1.0  0.97649  0.69105  0.37676  1.0000
  C   C433      1.0  0.24350  0.03637  0.97539  1.0000
  C   C434      1.0  0.92259  0.04977  0.04966  1.0000
  C  Sn53      1.0  0.97148  0.03651  0.11676  1.0000
  C  Sn54      1.0  0.99246  0.00783  0.10918  1.0000
  C   C435      1.0  0.97196  0.99313  0.03460  1.0000
  C   C436      1.0  0.26418  0.00809  0.96785  1.0000
  H   H261      1.0  0.20569  0.04680  0.92373  1.0000
  O  Te53      1.0  0.99909  0.05169  0.19052  1.0000
  O  Te54      1.0  0.04921  0.99407  0.17527  1.0000
  H   H262      1.0  0.25037  0.99657  0.91035  1.0000
  Mg  Mg27      1.0  0.06397  0.02368  0.26309  1.0000
  C   C437      1.0  0.53938  0.91207  0.25635  1.0000
  C   C438      1.0  0.57831  0.93383  0.30930  1.0000
  C  Sn55      1.0  0.63871  0.93956  0.31476  1.0000
  C  Sn56      1.0  0.66041  0.92317  0.26624  1.0000
  C   C439      1.0  0.62108  0.90146  0.21342  1.0000
  C   C440      1.0  0.56073  0.89591  0.20844  1.0000
  H   H263      1.0  0.49267  0.90778  0.25247  1.0000
  O  Te55      1.0  0.67700  0.96137  0.36800  1.0000
  O  Te56      1.0  0.72056  0.92845  0.27047  1.0000
  H   H264      1.0  0.53059  0.87907  0.16741  1.0000
  Mg  Mg28      1.0  0.75523  0.96043  0.35220  1.0000
  C   C441      1.0  0.63741  0.54004  0.73692  1.0000
  C   C442      1.0  0.59939  0.56031  0.75255  1.0000
  C  Sn57      1.0  0.62610  0.58625  0.79576  1.0000
  C  Sn58      1.0  0.69210  0.59194  0.82373  1.0000
  C   C443      1.0  0.72972  0.57153  0.80773  1.0000
  C   C444      1.0  0.70251  0.54564  0.76446  1.0000
  H   H265      1.0  0.61636  0.52002  0.70341  1.0000
  O  Te57      1.0  0.58743  0.60626  0.81087  1.0000
  O  Te58      1.0  0.72002  0.61769  0.86703  1.0000
  H   H266      1.0  0.73195  0.52996  0.75232  1.0000
  Mg  Mg29      1.0  0.64757  0.63821  0.87247  1.0000
  C   C445      1.0  0.78210  0.52394  0.33869  1.0000
  C   C446      1.0  0.78731  0.53943  0.40705  1.0000
  C  Sn59      1.0  0.74724  0.56327  0.39879  1.0000
  C  Sn60      1.0  0.70114  0.57171  0.32056  1.0000
  C   C447      1.0  0.69628  0.55605  0.25255  1.0000
  C   C448      1.0  0.73663  0.53224  0.26151  1.0000
  H   H267      1.0  0.81330  0.50551  0.34562  1.0000
  O  Te59      1.0  0.75309  0.57852  0.46772  1.0000
  O  Te60      1.0  0.66047  0.59544  0.31056  1.0000
  H   H268      1.0  0.73257  0.52024  0.20857  1.0000
  Mg  Mg30      1.0  0.68683  0.60933  0.42293  1.0000
  C   C449      1.0  0.42807  0.06557  0.49681  1.0000
  C   C450      1.0  0.39654  0.04099  0.50780  1.0000
  C  Sn61      1.0  0.43016  0.01520  0.54215  1.0000
  C  Sn62      1.0  0.49658  0.01407  0.56590  1.0000
  C   C451      1.0  0.52769  0.03879  0.55470  1.0000
  C   C452      1.0  0.49358  0.06448  0.52025  1.0000
  H   H269      1.0  0.40169  0.08546  0.47019  1.0000
  O  Te61      1.0  0.40588  0.99083  0.55267  1.0000
  O  Te62      1.0  0.53931  0.98858  0.60041  1.0000
  H   H270      1.0  0.51801  0.08352  0.51179  1.0000
  Mg  Mg31      1.0  0.47404  0.96111  0.60235  1.0000
  C   C453      1.0  0.14858  0.16626  0.98364  1.0000
  C   C454      1.0  0.19479  0.18819  0.99954  1.0000
  C  Sn63      1.0  0.91020  0.17934  0.03421  1.0000
  C  Sn64      1.0  0.92863  0.14945  0.05323  1.0000
  C   C455      1.0  0.88203  0.12767  0.03704  1.0000
  C   C456      1.0  0.81763  0.13528  0.00236  1.0000
  H   H271      1.0  0.09874  0.17215  0.95677  1.0000
  O  Te63      1.0  0.95576  0.20153  0.04971  1.0000
  O  Te64      1.0  0.99276  0.14147  0.08789  1.0000
  H   H272      1.0  0.13094  0.11978  0.99001  1.0000
  Mg  Mg32      1.0  0.03715  0.17964  0.09758  1.0000
  C   C457      1.0  0.13429  0.04194  0.73112  1.0000
  C   C458      1.0  0.09671  0.06100  0.75124  1.0000
  C  Sn65      1.0  0.12409  0.08554  0.80089  1.0000
  C  Sn66      1.0  0.19034  0.09105  0.83083  1.0000
  C   C459      1.0  0.22752  0.07187  0.81031  1.0000
  C   C460      1.0  0.19964  0.04737  0.76061  1.0000
  H   H273      1.0  0.11272  0.02299  0.69264  1.0000
  O  Te65      1.0  0.08585  0.10435  0.82042  1.0000
  O  Te66      1.0  0.21893  0.11542  0.88054  1.0000
  H   H274      1.0  0.22874  0.03263  0.74500  1.0000
  Mg  Mg33      1.0  0.14686  0.13464  0.89020  1.0000
  C   C461      1.0  0.12469  0.47459  0.55136  1.0000
  C   C462      1.0  0.12655  0.46094  0.48436  1.0000
  C  Sn67      1.0  0.16616  0.43671  0.49491  1.0000
  C  Sn68      1.0  0.20456  0.42599  0.57407  1.0000
  C   C463      1.0  0.20232  0.43979  0.64070  1.0000
  C   C464      1.0  0.16252  0.46402  0.62946  1.0000
  H   H275      1.0  0.09387  0.49333  0.54267  1.0000
  O  Te67      1.0  0.16746  0.42334  0.42731  1.0000
  O  Te68      1.0  0.24456  0.40181  0.58633  1.0000
  H   H276      1.0  0.16106  0.47457  0.68134  1.0000
  Mg  Mg34      1.0  0.22971  0.39104  0.47510  1.0000
  C   C465      1.0  0.57016  0.59821  0.54013  1.0000
  C   C466      1.0  0.57476  0.57583  0.49069  1.0000
  C  Sn69      1.0  0.54457  0.54864  0.48480  1.0000
  C  Sn70      1.0  0.50913  0.54383  0.52930  1.0000
  C   C467      1.0  0.50478  0.56637  0.57855  1.0000
  C   C468      1.0  0.53520  0.59349  0.58402  1.0000
  H   H277      1.0  0.59366  0.61920  0.54434  1.0000
  O  Te69      1.0  0.54967  0.52651  0.43514  1.0000
  O  Te70      1.0  0.47847  0.51687  0.52450  1.0000
  H   H278      1.0  0.53159  0.61082  0.62226  1.0000
  Mg  Mg35      1.0  0.49942  0.49354  0.44862  1.0000
  C   C469      1.0  0.23376  0.22984  0.20780  1.0000
  C   C470      1.0  0.18187  0.23528  0.22397  1.0000
  C  Sn71      1.0  0.12278  0.24270  0.16116  1.0000
  C  Sn72      1.0  0.11566  0.24469  0.08073  1.0000
  C   C471      1.0  0.16786  0.23919  0.06517  1.0000
  C   C472      1.0  0.22677  0.23179  0.12848  1.0000
  H   H279      1.0  0.27934  0.22410  0.25677  1.0000
  O  Te71      1.0  0.07144  0.24808  0.17839  1.0000
  O  Te72      1.0  0.05714  0.25206  0.01681  1.0000
  H   H280      1.0  0.26693  0.22756  0.11593  1.0000
  Mg  Mg36      1.0  0.00129  0.25738  0.07083  1.0000
  C   C473      1.0  0.63557  0.77658  0.67867  1.0000
  C   C474      1.0  0.67809  0.76365  0.75139  1.0000
  C  Sn73      1.0  0.73945  0.75614  0.76358  1.0000
  C  Sn74      1.0  0.75847  0.76171  0.70172  1.0000
  C   C475      1.0  0.71560  0.77468  0.62920  1.0000
  C   C476      1.0  0.65430  0.78209  0.61763  1.0000
  H   H281      1.0  0.58816  0.78234  0.66972  1.0000
  O  Te73      1.0  0.78132  0.74323  0.83660  1.0000
  O  Te74      1.0  0.81953  0.75444  0.71232  1.0000
  H   H282      1.0  0.62141  0.79212  0.56134  1.0000
  Mg  Mg37      1.0  0.85944  0.73725  0.82239  1.0000
  C   C477      1.0  0.23772  0.54077  0.63723  1.0000
  C   C478      1.0  0.19328  0.56225  0.59289  1.0000
  C  Sn75      1.0  0.21240  0.58718  0.56462  1.0000
  C  Sn76      1.0  0.27723  0.59062  0.58113  1.0000
  C   C479      1.0  0.32131  0.56900  0.62550  1.0000
  C   C480      1.0  0.30167  0.54414  0.65352  1.0000
  H   H283      1.0  0.22252  0.52152  0.65888  1.0000
  O  Te75      1.0  0.16739  0.60843  0.52042  1.0000
  O  Te76      1.0  0.29763  0.61533  0.55357  1.0000
  H   H284      1.0  0.33607  0.52751  0.68781  1.0000
  Mg  Mg38      1.0  0.21840  0.63823  0.49587  1.0000
  C   C481      1.0  0.24172  0.33388  0.89784  1.0000
  C   C482      1.0  0.19111  0.31384  0.87479  1.0000
  C  Sn77      1.0  0.12891  0.32292  0.82520  1.0000
  C  Sn78      1.0  0.11733  0.35261  0.79827  1.0000
  C   C483      1.0  0.16830  0.37248  0.82161  1.0000
  C   C484      1.0  0.23035  0.36317  0.87127  1.0000
  H   H285      1.0  0.28974  0.32667  0.93622  1.0000
  O  Te77      1.0  0.07889  0.30262  0.80277  1.0000
  O  Te78      1.0  0.05564  0.36227  0.74864  1.0000
  H   H286      1.0  0.26953  0.37868  0.88906  1.0000
  Mg  Mg39      1.0  0.00320  0.32634  0.73441  1.0000
  C   C485      1.0  0.78775  0.47363  0.83935  1.0000
  C   C486      1.0  0.78379  0.46262  0.90778  1.0000
  C  Sn79      1.0  0.73987  0.44039  0.89990  1.0000
  C  Sn80      1.0  0.69925  0.42899  0.82198  1.0000
  C   C487      1.0  0.70362  0.44014  0.75389  1.0000
  C   C488      1.0  0.74772  0.46239  0.76247  1.0000
  H   H287      1.0  0.82189  0.49084  0.84598  1.0000
  O  Te79      1.0  0.73652  0.42965  0.96891  1.0000
  O  Te80      1.0  0.65495  0.40676  0.81237  1.0000
  H   H288      1.0  0.75081  0.47090  0.70948  1.0000
  Mg  Mg40      1.0  0.66840  0.39930  0.92469  1.0000
