data_image0
_chemical_formula_structural       H48C88N32C2Sn2C2HTe2HMgC2Sn2C2HTe2HMgC2Sn2C2HTe2HMgC2Sn2C2HTe2HMgC2Sn2C2HTe2HMgC2Sn2C2HTe2HMgC2Sn2C2HTe2HMgC2Sn2C2HTe2HMgC2Sn2C2HTe2HMgC2Sn2C2HTe2HMgC2Sn2C2HTe2HMgC2Sn2C2HTe2HMgC2Sn2C2HTe2HMgC2Sn2C2HTe2HMgC2Sn2C2HTe2HMgC2Sn2C2HTe2HMgC2Sn2C2HTe2HMgC2Sn2C2HTe2HMgC2Sn2C2HTe2HMgC2Sn2C2HTe2HMgC2Sn2C2HTe2HMgC2Sn2C2HTe2HMgC2Sn2C2HTe2HMgC2Sn2C2HTe2HMgC2Sn2C2HTe2HMgC2Sn2C2HTe2HMgC2Sn2C2HTe2HMgC2Sn2C2HTe2HMgC2Sn2C2HTe2HMgC2Sn2C2HTe2HMgC2Sn2C2HTe2HMgC2Sn2C2HTe2HMgC2Sn2C2HTe2HMgC2Sn2C2HTe2HMgC2Sn2C2HTe2HMgC2Sn2C2HTe2HMgC2Sn2C2HTe2HMgC2Sn2C2HTe2HMgC2Sn2C2HTe2HMgC2Sn2C2HTe2HMgC2Sn2C2HTe2HMgC2Sn2C2HTe2HMgC2Sn2C2HTe2HMgC2Sn2C2HTe2HMgC2Sn2C2HTe2HMgC2Sn2C2HTe2HMgC2Sn2C2HTe2HMgC2Sn2C2HTe2HMgC2Sn2C2HTe2HMgC2Sn2C2HTe2HMgC2Sn2C2HTe2HMgC2Sn2C2HTe2HMgC2Sn2C2HTe2HMgC2Sn2C2HTe2HMgC2Sn2C2HTe2HMgC2Sn2C2HTe2HMgC2Sn2C2HTe2HMgC2Sn2C2HTe2HMgC2Sn2C2HTe2HMgC2Sn2C2HTe2HMgC2Sn2C2HTe2HMgC2Sn2C2HTe2HMgC2Sn2C2HTe2HMgC2Sn2C2HTe2HMgC2Sn2C2HTe2HMgC2Sn2C2HTe2HMgC2Sn2C2HTe2HMgC2Sn2C2HTe2HMgC2Sn2C2HTe2HMgC2Sn2C2HTe2HMgC2Sn2C2HTe2HMgC2Sn2C2HTe2HMgC2Sn2C2HTe2HMgC2Sn2C2HTe2HMgC2Sn2C2HTe2HMgC2Sn2C2HTe2HMgC2Sn2C2HTe2HMgC2Sn2C2HTe2HMgC2Sn2C2HTe2HMgC2Sn2C2HTe2HMg
_chemical_formula_sum              "H208 C408 N32 Sn160 Te160 Mg80"
_cell_length_a       23.4382
_cell_length_b       45.2713
_cell_length_c       18.4254
_cell_angle_alpha    90.1041
_cell_angle_beta     116.362
_cell_angle_gamma    90.2363

_symmetry_space_group_name_H-M    'P1'
_space_group_IT_number       1

loop_
  _space_group_symop_operation_xyz
  'x, y, z'

loop_
  _atom_site_type_symbol
  _atom_site_label
  _atom_site_symmetry_multiplicity
  _atom_site_fract_x
  _atom_site_fract_y
  _atom_site_fract_z
  _atom_site_occupancy
  H   H1        1.0  0.82048  0.58798  0.86621  1.0000
  H   H2        1.0  0.82019  0.41195  0.37531  1.0000
  H   H3        1.0  0.31918  0.08652  0.87726  1.0000
  H   H4        1.0  0.31493  0.91224  0.37050  1.0000
  H   H5        1.0  0.08763  0.58334  0.50208  1.0000
  H   H6        1.0  0.08762  0.41724  0.00954  1.0000
  H   H7        1.0  0.58806  0.08227  0.51437  1.0000
  H   H8        1.0  0.58280  0.91503  0.00268  1.0000
  H   H9        1.0  0.68362  0.58653  0.00743  1.0000
  H   H10       1.0  0.68621  0.41254  0.51897  1.0000
  H   H11       1.0  0.18595  0.08683  0.02041  1.0000
  H   H12       1.0  0.18413  0.91357  0.51729  1.0000
  H   H13       1.0  0.59281  0.57027  0.43634  1.0000
  H   H14       1.0  0.59512  0.42237  0.94381  1.0000
  H   H15       1.0  0.08845  0.08029  0.43731  1.0000
  H   H16       1.0  0.08691  0.92480  0.93378  1.0000
  H   H17       1.0  0.24033  0.51982  0.25693  1.0000
  H   H18       1.0  0.24141  0.48126  0.76004  1.0000
  H   H19       1.0  0.73308  0.01998  0.25945  1.0000
  H   H20       1.0  0.73863  0.97943  0.75294  1.0000
  H   H21       1.0  0.31970  0.57464  0.95281  1.0000
  H   H22       1.0  0.31976  0.42830  0.45652  1.0000
  H   H23       1.0  0.82551  0.06999  0.96335  1.0000
  H   H24       1.0  0.81173  0.93024  0.44831  1.0000
  H   H25       1.0  0.54430  0.87330  0.08434  1.0000
  H   H26       1.0  0.55364  0.12334  0.58602  1.0000
  H   H27       1.0  0.04898  0.37621  0.08417  1.0000
  H   H28       1.0  0.05342  0.62537  0.59233  1.0000
  H   H29       1.0  0.66740  0.51890  0.13092  1.0000
  H   H30       1.0  0.66920  0.48000  0.63142  1.0000
  H   H31       1.0  0.16945  0.01825  0.12964  1.0000
  H   H32       1.0  0.16343  0.98122  0.62690  1.0000
  H   H33       1.0  0.70910  0.91470  0.85777  1.0000
  H   H34       1.0  0.71272  0.08439  0.36831  1.0000
  H   H35       1.0  0.21661  0.41463  0.86871  1.0000
  H   H36       1.0  0.21432  0.58615  0.36154  1.0000
  H   H37       1.0  0.71337  0.77710  0.57353  1.0000
  H   H38       1.0  0.71618  0.22103  0.07544  1.0000
  H   H39       1.0  0.22141  0.27612  0.58388  1.0000
  H   H40       1.0  0.20349  0.72562  0.06927  1.0000
  H   H41       1.0  0.70015  0.62778  0.64048  1.0000
  H   H42       1.0  0.69621  0.37678  0.15403  1.0000
  H   H43       1.0  0.19198  0.12361  0.65263  1.0000
  H   H44       1.0  0.19304  0.87542  0.14987  1.0000
  H   H45       1.0  0.65582  0.72614  0.26593  1.0000
  H   H46       1.0  0.64790  0.27642  0.75972  1.0000
  H   H47       1.0  0.16236  0.23319  0.27794  1.0000
  H   H48       1.0  0.16562  0.77229  0.77648  1.0000
  C   C1        1.0  0.79492  0.56769  0.83639  1.0000
  C   C2        1.0  0.79415  0.43112  0.33974  1.0000
  C   C3        1.0  0.29261  0.06775  0.83913  1.0000
  C   C4        1.0  0.28912  0.93166  0.33617  1.0000
  C   C5        1.0  0.42786  0.56777  0.74886  1.0000
  C   C6        1.0  0.42706  0.43137  0.25093  1.0000
  C   C7        1.0  0.92605  0.06617  0.75059  1.0000
  C   C8        1.0  0.92173  0.93228  0.24542  1.0000
  C   C9        1.0  0.49476  0.56616  0.77874  1.0000
  C   C10       1.0  0.49402  0.43198  0.28096  1.0000
  C   C11       1.0  0.99281  0.06537  0.77950  1.0000
  C   C12       1.0  0.98864  0.93350  0.27515  1.0000
  C   C13       1.0  0.52230  0.56722  0.72429  1.0000
  C   C14       1.0  0.52154  0.43068  0.22659  1.0000
  C   C15       1.0  0.01985  0.06755  0.72474  1.0000
  C   C16       1.0  0.01627  0.93199  0.22091  1.0000
  C   C17       1.0  0.48307  0.56757  0.63977  1.0000
  C   C18       1.0  0.48222  0.43123  0.14212  1.0000
  C   C19       1.0  0.98011  0.06849  0.64041  1.0000
  C   C20       1.0  0.97720  0.93179  0.13643  1.0000
  C   C21       1.0  0.41616  0.56662  0.60995  1.0000
  C   C22       1.0  0.41553  0.43368  0.11221  1.0000
  C   C23       1.0  0.91331  0.06666  0.61106  1.0000
  C   C24       1.0  0.91039  0.93336  0.10662  1.0000
  C   C25       1.0  0.38855  0.56789  0.66428  1.0000
  C   C26       1.0  0.38789  0.43237  0.16649  1.0000
  C   C27       1.0  0.88642  0.06662  0.66628  1.0000
  C   C28       1.0  0.88269  0.93238  0.16085  1.0000
  C   C29       1.0  0.11509  0.56617  0.54563  1.0000
  C   C30       1.0  0.11509  0.43539  0.04979  1.0000
  C   C31       1.0  0.61431  0.06356  0.55234  1.0000
  C   C32       1.0  0.60978  0.93326  0.04302  1.0000
  C   C33       1.0  0.82664  0.53438  0.51061  1.0000
  C   C34       1.0  0.82687  0.46639  0.01169  1.0000
  C   C35       1.0  0.32418  0.03467  0.51049  1.0000
  C   C36       1.0  0.32174  0.96510  0.00668  1.0000
  C   C37       1.0  0.72785  0.59920  0.04005  1.0000
  C   C38       1.0  0.73133  0.40040  0.54404  1.0000
  C   C39       1.0  0.23125  0.09905  0.04768  1.0000
  C   C40       1.0  0.22916  0.90147  0.54688  1.0000
  C   C41       1.0  0.08454  0.53733  0.87766  1.0000
  C   C42       1.0  0.08351  0.46282  0.38044  1.0000
  C   C43       1.0  0.58188  0.03801  0.87745  1.0000
  C   C44       1.0  0.57920  0.96146  0.37560  1.0000
  C   C45       1.0  0.25978  0.54243  0.27074  1.0000
  C   C46       1.0  0.25884  0.45843  0.77367  1.0000
  C   C47       1.0  0.75342  0.04243  0.27235  1.0000
  C   C48       1.0  0.75667  0.95672  0.76743  1.0000
  C   C49       1.0  0.59493  0.86705  0.11232  1.0000
  C   C50       1.0  0.60302  0.13155  0.61725  1.0000
  C   C51       1.0  0.09885  0.36885  0.11495  1.0000
  C   C52       1.0  0.10381  0.63227  0.62006  1.0000
  C   C53       1.0  0.66370  0.77326  0.95479  1.0000
  C   C54       1.0  0.66853  0.22593  0.45763  1.0000
  C   C55       1.0  0.16962  0.27386  0.96223  1.0000
  C   C56       1.0  0.16968  0.72668  0.46124  1.0000
  C   C57       1.0  0.67665  0.74490  0.98988  1.0000
  C   C58       1.0  0.67971  0.25456  0.49205  1.0000
  C   C59       1.0  0.18065  0.24561  0.99829  1.0000
  C   C60       1.0  0.18272  0.75500  0.49739  1.0000
  C   C61       1.0  0.69441  0.72204  0.95211  1.0000
  C   C62       1.0  0.69861  0.27741  0.45525  1.0000
  C   C63       1.0  0.19884  0.22214  0.96279  1.0000
  C   C64       1.0  0.19944  0.77826  0.45967  1.0000
  C   C65       1.0  0.69786  0.72747  0.87875  1.0000
  C   C66       1.0  0.70461  0.27184  0.38355  1.0000
  C   C67       1.0  0.20499  0.22690  0.89085  1.0000
  C   C68       1.0  0.20264  0.77313  0.38605  1.0000
  C   C69       1.0  0.68607  0.75605  0.84436  1.0000
  C   C70       1.0  0.69421  0.24317  0.34976  1.0000
  C   C71       1.0  0.19633  0.25536  0.85648  1.0000
  C   C72       1.0  0.19131  0.74464  0.35101  1.0000
  C   C73       1.0  0.66960  0.77902  0.88320  1.0000
  C   C74       1.0  0.67696  0.22015  0.38767  1.0000
  C   C75       1.0  0.17905  0.27892  0.89274  1.0000
  C   C76       1.0  0.17535  0.72132  0.38926  1.0000
  C   C77       1.0  0.64809  0.54145  0.11835  1.0000
  C   C78       1.0  0.64866  0.45756  0.61949  1.0000
  C   C79       1.0  0.14880  0.04055  0.11727  1.0000
  C   C80       1.0  0.14439  0.95853  0.61383  1.0000
  C   C81       1.0  0.66258  0.90382  0.82513  1.0000
  C   C82       1.0  0.66744  0.09528  0.33023  1.0000
  C   C83       1.0  0.17113  0.40351  0.83138  1.0000
  C   C84       1.0  0.16777  0.59673  0.32836  1.0000
  C   C85       1.0  0.74037  0.63243  0.69984  1.0000
  C   C86       1.0  0.74010  0.36904  0.20506  1.0000
  C   C87       1.0  0.23542  0.13039  0.70627  1.0000
  C   C88       1.0  0.23622  0.86932  0.20437  1.0000
  N   N1        1.0  0.11904  0.41820  0.79361  1.0000
  N   N2        1.0  0.11544  0.58167  0.29478  1.0000
  N   N3        1.0  0.61033  0.91868  0.79152  1.0000
  N   N4        1.0  0.61526  0.08044  0.29214  1.0000
  N   N5        1.0  0.24717  0.56228  0.21553  1.0000
  N   N6        1.0  0.24443  0.43830  0.71843  1.0000
  N   N7        1.0  0.74127  0.06215  0.21685  1.0000
  N   N8        1.0  0.74280  0.93647  0.71267  1.0000
  N   N9        1.0  0.08936  0.54546  0.56955  1.0000
  N   N10       1.0  0.08964  0.45698  0.07086  1.0000
  N   N11       1.0  0.58739  0.04170  0.57026  1.0000
  N   N12       1.0  0.58374  0.95460  0.06397  1.0000
  N   N13       1.0  0.82207  0.54491  0.82315  1.0000
  N   N14       1.0  0.82088  0.45323  0.32247  1.0000
  N   N15       1.0  0.31889  0.04623  0.81910  1.0000
  N   N16       1.0  0.31621  0.95365  0.31893  1.0000
  N   N17       1.0  0.66094  0.56101  0.17477  1.0000
  N   N18       1.0  0.66096  0.43829  0.67608  1.0000
  N   N19       1.0  0.16089  0.06008  0.17351  1.0000
  N   N20       1.0  0.15744  0.93882  0.66953  1.0000
  N   N21       1.0  0.78569  0.41391  0.57663  1.0000
  N   N22       1.0  0.78200  0.58624  0.07960  1.0000
  N   N23       1.0  0.28317  0.91512  0.58295  1.0000
  N   N24       1.0  0.28538  0.08559  0.07953  1.0000
  N   N25       1.0  0.14551  0.62055  0.68598  1.0000
  N   N26       1.0  0.13964  0.38054  0.18201  1.0000
  N   N27       1.0  0.64360  0.12077  0.68544  1.0000
  N   N28       1.0  0.63629  0.87928  0.17803  1.0000
  N   N29       1.0  0.79387  0.61871  0.72417  1.0000
  N   N30       1.0  0.79545  0.38009  0.22154  1.0000
  N   N31       1.0  0.29045  0.11911  0.72334  1.0000
  N   N32       1.0  0.29081  0.88156  0.22279  1.0000
  C   C89       1.0  0.95421  0.51277  0.82234  1.0000
  C   C90       1.0  0.00467  0.53294  0.85523  1.0000
  C  Sn1       1.0  0.99703  0.55971  0.88766  1.0000
  C  Sn2       1.0  0.93772  0.56634  0.88710  1.0000
  C   C91       1.0  0.88754  0.54600  0.85411  1.0000
  C   C92       1.0  0.89570  0.51928  0.82179  1.0000
  H   H49       1.0  0.96053  0.49209  0.79738  1.0000
  O  Te1       1.0  0.04793  0.57963  0.92025  1.0000
  O  Te2       1.0  0.92878  0.59292  0.91915  1.0000
  H   H50       1.0  0.85664  0.50365  0.79638  1.0000
  Mg  Mg1       1.0  0.01241  0.61294  0.95674  1.0000
  C   C93       1.0  0.94609  0.42781  0.38359  1.0000
  C   C94       1.0  0.89701  0.44852  0.35755  1.0000
  C  Sn3       1.0  0.90701  0.47700  0.33626  1.0000
  C  Sn4       1.0  0.96730  0.48483  0.34116  1.0000
  C   C95       1.0  0.01608  0.46394  0.36722  1.0000
  C   C96       1.0  0.00557  0.43551  0.38840  1.0000
  H   H51       1.0  0.93796  0.40581  0.39994  1.0000
  O  Te3       1.0  0.85746  0.49743  0.31040  1.0000
  O  Te4       1.0  0.97858  0.51313  0.32021  1.0000
  H   H52       1.0  0.04357  0.41947  0.40851  1.0000
  Mg  Mg2       1.0  0.89608  0.53322  0.28849  1.0000
  C   C97       1.0  0.44358  0.07264  0.87875  1.0000
  C   C98       1.0  0.39303  0.05258  0.84410  1.0000
  C  Sn5       1.0  0.40380  0.02388  0.82525  1.0000
  C  Sn6       1.0  0.46639  0.01515  0.84149  1.0000
  C   C99       1.0  0.51665  0.03538  0.87622  1.0000
  C   C100      1.0  0.50533  0.06405  0.89481  1.0000
  H   H53       1.0  0.43483  0.09482  0.89318  1.0000
  O  Te5       1.0  0.35276  0.00412  0.79063  1.0000
  O  Te6       1.0  0.48647  0.98660  0.82328  1.0000
  H   H54       1.0  0.54448  0.07957  0.92169  1.0000
  Mg  Mg3       1.0  0.40127  0.96766  0.77664  1.0000
  C   C101      1.0  0.44932  0.98580  0.31954  1.0000
  C   C102      1.0  0.50109  0.96716  0.36063  1.0000
  C  Sn7       1.0  0.49229  0.93999  0.39021  1.0000
  C  Sn8       1.0  0.43045  0.93140  0.37833  1.0000
  C   C103      1.0  0.37896  0.95020  0.33709  1.0000
  C   C104      1.0  0.38831  0.97733  0.30776  1.0000
  H   H55       1.0  0.44858  0.00679  0.29680  1.0000
  O  Te7       1.0  0.54453  0.92164  0.43116  1.0000
  O  Te8       1.0  0.42030  0.90437  0.40724  1.0000
  H   H56       1.0  0.34821  0.99176  0.27590  1.0000
  Mg  Mg4       1.0  0.50656  0.88698  0.45928  1.0000
  C   C105      1.0  0.27352  0.54174  0.65545  1.0000
  C   C106      1.0  0.31134  0.56107  0.63618  1.0000
  C  Sn9       1.0  0.28422  0.58563  0.58730  1.0000
  C  Sn10      1.0  0.21798  0.59087  0.55727  1.0000
  C   C107      1.0  0.18055  0.57140  0.57694  1.0000
  C   C108      1.0  0.20819  0.54689  0.62588  1.0000
  H   H57       1.0  0.29490  0.52278  0.69335  1.0000
  O  Te9       1.0  0.32270  0.60472  0.56861  1.0000
  O  Te10      1.0  0.18964  0.61525  0.50832  1.0000
  H   H58       1.0  0.17890  0.53193  0.64083  1.0000
  Mg  Mg5       1.0  0.26198  0.63491  0.49966  1.0000
  C   C109      1.0  0.26319  0.40588  0.07638  1.0000
  C   C110      1.0  0.30848  0.42750  0.11926  1.0000
  C  Sn11      1.0  0.29045  0.45303  0.14630  1.0000
  C  Sn12      1.0  0.22585  0.45693  0.13005  1.0000
  C   C111      1.0  0.18091  0.43516  0.08716  1.0000
  C   C112      1.0  0.19947  0.40970  0.06035  1.0000
  H   H59       1.0  0.27755  0.38617  0.05568  1.0000
  O  Te11      1.0  0.33631  0.47442  0.18903  1.0000
  O  Te12      1.0  0.20653  0.48223  0.15640  1.0000
  H   H60       1.0  0.16440  0.39295  0.02721  1.0000
  Mg  Mg6       1.0  0.28663  0.50510  0.21230  1.0000
  C   C113      1.0  0.72660  0.09285  0.56473  1.0000
  C   C114      1.0  0.68863  0.07065  0.57368  1.0000
  C  Sn13      1.0  0.71659  0.04552  0.61937  1.0000
  C  Sn14      1.0  0.78383  0.04263  0.65675  1.0000
  C   C115      1.0  0.82140  0.06498  0.64749  1.0000
  C   C116      1.0  0.79292  0.09002  0.60161  1.0000
  H   H61       1.0  0.70457  0.11224  0.52927  1.0000
  O  Te13      1.0  0.67795  0.02354  0.62767  1.0000
  O  Te14      1.0  0.81303  0.01776  0.70278  1.0000
  H   H62       1.0  0.82234  0.10722  0.59473  1.0000
  Mg  Mg7       1.0  0.74804  0.99378  0.69636  1.0000
  C   C117      1.0  0.76779  0.95947  0.14850  1.0000
  C   C118      1.0  0.80649  0.93770  0.13992  1.0000
  C  Sn15      1.0  0.77927  0.91266  0.09243  1.0000
  C  Sn16      1.0  0.71204  0.90943  0.05284  1.0000
  C   C119      1.0  0.67374  0.93134  0.06176  1.0000
  C   C120      1.0  0.70148  0.95630  0.10945  1.0000
  H   H63       1.0  0.78925  0.97879  0.18536  1.0000
  O  Te15      1.0  0.81863  0.89112  0.08453  1.0000
  O  Te16      1.0  0.68358  0.88463  0.00499  1.0000
  H   H64       1.0  0.67151  0.97316  0.11604  1.0000
  Mg  Mg8       1.0  0.75735  0.86130  0.01280  1.0000
  C   C121      1.0  0.78210  0.52394  0.33869  1.0000
  C   C122      1.0  0.78731  0.53943  0.40705  1.0000
  C  Sn17      1.0  0.74724  0.56327  0.39879  1.0000
  C  Sn18      1.0  0.70114  0.57171  0.32056  1.0000
  C   C123      1.0  0.69628  0.55605  0.25255  1.0000
  C   C124      1.0  0.73663  0.53224  0.26151  1.0000
  H   H65       1.0  0.81330  0.50551  0.34562  1.0000
  O  Te17      1.0  0.75309  0.57852  0.46772  1.0000
  O  Te18      1.0  0.66047  0.59544  0.31056  1.0000
  H   H66       1.0  0.73257  0.52024  0.20857  1.0000
  Mg  Mg9       1.0  0.68683  0.60933  0.42293  1.0000
  C   C125      1.0  0.78775  0.47363  0.83935  1.0000
  C   C126      1.0  0.78379  0.46262  0.90778  1.0000
  C  Sn19      1.0  0.73987  0.44039  0.89990  1.0000
  C  Sn20      1.0  0.69925  0.42899  0.82198  1.0000
  C   C127      1.0  0.70362  0.44014  0.75389  1.0000
  C   C128      1.0  0.74772  0.46239  0.76247  1.0000
  H   H67       1.0  0.82189  0.49084  0.84598  1.0000
  O  Te19      1.0  0.73652  0.42965  0.96891  1.0000
  O  Te20      1.0  0.65495  0.40676  0.81237  1.0000
  H   H68       1.0  0.75081  0.47090  0.70948  1.0000
  Mg  Mg10      1.0  0.66840  0.39930  0.92469  1.0000
  C   C129      1.0  0.26404  0.02760  0.29465  1.0000
  C   C130      1.0  0.21322  0.04715  0.25819  1.0000
  C  Sn21      1.0  0.19737  0.06642  0.30564  1.0000
  C  Sn22      1.0  0.23315  0.06607  0.39116  1.0000
  C   C131      1.0  0.28393  0.04645  0.42705  1.0000
  C   C132      1.0  0.29937  0.02725  0.37899  1.0000
  H   H69       1.0  0.27601  0.01276  0.25747  1.0000
  O  Te21      1.0  0.14644  0.08579  0.26823  1.0000
  O  Te22      1.0  0.21835  0.08510  0.44003  1.0000
  H   H70       1.0  0.33874  0.01214  0.40723  1.0000
  Mg  Mg11      1.0  0.14469  0.10746  0.36070  1.0000
  C   C133      1.0  0.20010  0.92573  0.83215  1.0000
  C   C134      1.0  0.19569  0.94145  0.76467  1.0000
  C  Sn23      1.0  0.23669  0.96522  0.77433  1.0000
  C  Sn24      1.0  0.28292  0.97334  0.85308  1.0000
  C   C135      1.0  0.28697  0.95746  0.92020  1.0000
  C   C136      1.0  0.24569  0.93372  0.90984  1.0000
  H   H71       1.0  0.16819  0.90734  0.82414  1.0000
  O  Te23      1.0  0.23163  0.98070  0.70627  1.0000
  O  Te24      1.0  0.32450  0.99700  0.86447  1.0000
  H   H72       1.0  0.24914  0.92153  0.96209  1.0000
  Mg  Mg12      1.0  0.29103  0.01130  0.75287  1.0000
  C   C137      1.0  0.96176  0.56873  0.50006  1.0000
  C   C138      1.0  0.01399  0.55014  0.53905  1.0000
  C  Sn25      1.0  0.00573  0.52209  0.56460  1.0000
  C  Sn26      1.0  0.94398  0.51255  0.55075  1.0000
  C   C139      1.0  0.89203  0.53130  0.51164  1.0000
  C   C140      1.0  0.90083  0.55933  0.48634  1.0000
  H   H73       1.0  0.96856  0.59041  0.48045  1.0000
  O  Te25      1.0  0.05844  0.50380  0.60349  1.0000
  O  Te26      1.0  0.93438  0.48462  0.57563  1.0000
  H   H74       1.0  0.86038  0.57371  0.45611  1.0000
  Mg  Mg13      1.0  0.02112  0.46771  0.62615  1.0000
  C   C141      1.0  0.96217  0.43319  0.00110  1.0000
  C   C142      1.0  0.01268  0.45340  0.03202  1.0000
  C  Sn27      1.0  0.00483  0.48091  0.06077  1.0000
  C  Sn28      1.0  0.94526  0.48827  0.05846  1.0000
  C   C143      1.0  0.89504  0.46789  0.02746  1.0000
  C   C144      1.0  0.25249  0.44191  0.99883  1.0000
  H   H75       1.0  0.31773  0.41342  0.97899  1.0000
  O  Te27      1.0  0.05578  0.50084  0.09144  1.0000
  O  Te28      1.0  0.93612  0.51561  0.08682  1.0000
  H   H76       1.0  0.21339  0.42626  0.97494  1.0000
  Mg  Mg14      1.0  0.01992  0.53533  0.12296  1.0000
  C   C145      1.0  0.45125  0.00794  0.55667  1.0000
  C   C146      1.0  0.40241  0.02878  0.52817  1.0000
  C  Sn29      1.0  0.41269  0.05662  0.50338  1.0000
  C  Sn30      1.0  0.47303  0.06366  0.50724  1.0000
  C   C147      1.0  0.52156  0.04264  0.53579  1.0000
  C   C148      1.0  0.51076  0.01486  0.56047  1.0000
  H   H77       1.0  0.45085  0.98644  0.57572  1.0000
  O  Te29      1.0  0.36339  0.07718  0.47509  1.0000
  O  Te30      1.0  0.48459  0.09131  0.48282  1.0000
  H   H78       1.0  0.55654  0.99872  0.58248  1.0000
  Mg  Mg15      1.0  0.40235  0.11190  0.44875  1.0000
  C   C149      1.0  0.48425  0.98819  0.05672  1.0000
  C   C150      1.0  0.51440  0.96266  0.04890  1.0000
  C  Sn31      1.0  0.47922  0.93684  0.01687  1.0000
  C  Sn32      1.0  0.76171  0.93813  0.99225  1.0000
  C   C151      1.0  0.38290  0.96231  0.00027  1.0000
  C   C152      1.0  0.41856  0.98802  0.03243  1.0000
  H   H79       1.0  0.50387  0.00809  0.08156  1.0000
  O  Te31      1.0  0.51010  0.91152  0.00950  1.0000
  O  Te32      1.0  0.72540  0.91263  0.96001  1.0000
  H   H80       1.0  0.38724  0.00780  0.03843  1.0000
  Mg  Mg16      1.0  0.78917  0.88367  0.96206  1.0000
  C   C153      1.0  0.51027  0.54035  0.51594  1.0000
  C   C154      1.0  0.51313  0.56120  0.57351  1.0000
  C  Sn33      1.0  0.54414  0.58822  0.58028  1.0000
  C  Sn34      1.0  0.57275  0.59443  0.52836  1.0000
  C   C155      1.0  0.56959  0.57344  0.47093  1.0000
  C   C156      1.0  0.53846  0.54646  0.46468  1.0000
  H   H81       1.0  0.48615  0.51949  0.51107  1.0000
  O  Te33      1.0  0.54657  0.60879  0.63815  1.0000
  O  Te34      1.0  0.60402  0.62127  0.53382  1.0000
  H   H82       1.0  0.53621  0.53033  0.42007  1.0000
  Mg  Mg17      1.0  0.59464  0.64221  0.62231  1.0000
  C   C157      1.0  0.56902  0.39717  0.04814  1.0000
  C   C158      1.0  0.91851  0.41860  0.99058  1.0000
  C  Sn35      1.0  0.89117  0.44649  0.98312  1.0000
  C  Sn36      1.0  0.51388  0.45300  0.03433  1.0000
  C   C159      1.0  0.51376  0.43289  0.09175  1.0000
  C   C160      1.0  0.54123  0.40504  0.09869  1.0000
  H   H83       1.0  0.59030  0.37562  0.05354  1.0000
  O  Te35      1.0  0.89197  0.46615  0.92527  1.0000
  O  Te36      1.0  0.48625  0.48073  0.02818  1.0000
  H   H84       1.0  0.54094  0.38961  0.14329  1.0000
  Mg  Mg18      1.0  0.84825  0.50136  0.94002  1.0000
  C   C161      1.0  0.00913  0.04531  0.51340  1.0000
  C   C162      1.0  0.00999  0.06466  0.57306  1.0000
  C  Sn37      1.0  0.03843  0.09251  0.58284  1.0000
  C  Sn38      1.0  0.06647  0.10108  0.53184  1.0000
  C   C163      1.0  0.06532  0.08157  0.47230  1.0000
  C   C164      1.0  0.03676  0.05375  0.46306  1.0000
  H   H85       1.0  0.98700  0.02379  0.50622  1.0000
  O  Te37      1.0  0.03889  0.11157  0.64276  1.0000
  O  Te38      1.0  0.09519  0.12879  0.54028  1.0000
  H   H86       1.0  0.03606  0.03878  0.41683  1.0000
  Mg  Mg19      1.0  0.08379  0.14700  0.63073  1.0000
  C   C165      1.0  0.02178  0.95606  0.98344  1.0000
  C   C166      1.0  0.05997  0.93370  0.97644  1.0000
  C  Sn39      1.0  0.72065  0.90621  0.02102  1.0000
  C  Sn40      1.0  0.69156  0.90259  0.07353  1.0000
  C   C167      1.0  0.65340  0.92509  0.08007  1.0000
  C   C168      1.0  0.64397  0.95102  0.03519  1.0000
  H   H87       1.0  0.01445  0.97613  0.94870  1.0000
  O  Te39      1.0  0.75896  0.88409  0.01332  1.0000
  O  Te40      1.0  0.70049  0.87682  0.11876  1.0000
  H   H88       1.0  0.61436  0.96833  0.04059  1.0000
  Mg  Mg20      1.0  0.75684  0.85299  0.08758  1.0000
  C   C169      1.0  0.76600  0.75990  0.71926  1.0000
  C   C170      1.0  0.72063  0.76878  0.64279  1.0000
  C  Sn41      1.0  0.65894  0.77584  0.63017  1.0000
  C  Sn42      1.0  0.64252  0.77395  0.69545  1.0000
  C   C171      1.0  0.68827  0.76505  0.77174  1.0000
  C   C172      1.0  0.74985  0.75804  0.78368  1.0000
  H   H89       1.0  0.81366  0.75448  0.72852  1.0000
  O  Te41      1.0  0.61419  0.78466  0.55338  1.0000
  O  Te42      1.0  0.58123  0.78088  0.68453  1.0000
  H   H90       1.0  0.78498  0.75118  0.84291  1.0000
  Mg  Mg21      1.0  0.53689  0.79180  0.56865  1.0000
  C   C173      1.0  0.64236  0.22360  0.14223  1.0000
  C   C174      1.0  0.69563  0.22637  0.12733  1.0000
  C  Sn43      1.0  0.75499  0.23367  0.19028  1.0000
  C  Sn44      1.0  0.76099  0.23825  0.26957  1.0000
  C   C175      1.0  0.70742  0.23541  0.28386  1.0000
  C   C176      1.0  0.64825  0.22811  0.22042  1.0000
  H   H91       1.0  0.59658  0.21794  0.09315  1.0000
  O  Te43      1.0  0.80771  0.23636  0.17434  1.0000
  O  Te44      1.0  0.81976  0.24556  0.33361  1.0000
  H   H92       1.0  0.60702  0.22595  0.23198  1.0000
  Mg  Mg22      1.0  0.87766  0.24669  0.28155  1.0000
  C   C177      1.0  0.14355  0.27128  0.68824  1.0000
  C   C178      1.0  0.18917  0.26129  0.76326  1.0000
  C  Sn45      1.0  0.25234  0.25763  0.77704  1.0000
  C  Sn46      1.0  0.27001  0.26412  0.71444  1.0000
  C   C179      1.0  0.22401  0.27413  0.63961  1.0000
  C   C180      1.0  0.16094  0.27770  0.62646  1.0000
  H   H93       1.0  0.09475  0.27407  0.67807  1.0000
  O  Te45      1.0  0.29731  0.24761  0.85235  1.0000
  O  Te46      1.0  0.33280  0.26067  0.72659  1.0000
  H   H94       1.0  0.12563  0.28546  0.56838  1.0000
  Mg  Mg23      1.0  0.37686  0.24641  0.83961  1.0000
  C   C181      1.0  0.26246  0.74276  0.25703  1.0000
  C   C182      1.0  0.20949  0.74211  0.27300  1.0000
  C  Sn47      1.0  0.15003  0.73332  0.21280  1.0000
  C  Sn48      1.0  0.14364  0.72502  0.13523  1.0000
  C   C183      1.0  0.19694  0.72573  0.11988  1.0000
  C   C184      1.0  0.25620  0.73457  0.18056  1.0000
  H   H95       1.0  0.30833  0.74959  0.30399  1.0000
  O  Te47      1.0  0.09760  0.73280  0.22976  1.0000
  O  Te48      1.0  0.08478  0.71613  0.07397  1.0000
  H   H96       1.0  0.29722  0.73506  0.16819  1.0000
  Mg  Mg24      1.0  0.02737  0.71908  0.12645  1.0000
  C   C185      1.0  0.63741  0.54004  0.73692  1.0000
  C   C186      1.0  0.59939  0.56031  0.75255  1.0000
  C  Sn49      1.0  0.62610  0.58625  0.79576  1.0000
  C  Sn50      1.0  0.69210  0.59194  0.82373  1.0000
  C   C187      1.0  0.72972  0.57153  0.80773  1.0000
  C   C188      1.0  0.70251  0.54564  0.76446  1.0000
  H   H97       1.0  0.61636  0.52002  0.70341  1.0000
  O  Te49      1.0  0.58743  0.60626  0.81087  1.0000
  O  Te50      1.0  0.72002  0.61769  0.86703  1.0000
  H   H98       1.0  0.73195  0.52996  0.75232  1.0000
  Mg  Mg25      1.0  0.64757  0.63821  0.87247  1.0000
  C   C189      1.0  0.67173  0.45718  0.24975  1.0000
  C   C190      1.0  0.71722  0.43768  0.30258  1.0000
  C  Sn51      1.0  0.69826  0.41257  0.33038  1.0000
  C  Sn52      1.0  0.63249  0.40694  0.30469  1.0000
  C   C191      1.0  0.58735  0.42657  0.25178  1.0000
  C   C192      1.0  0.60686  0.45163  0.22435  1.0000
  H   H99       1.0  0.68681  0.47656  0.22849  1.0000
  O  Te51      1.0  0.74433  0.39333  0.38317  1.0000
  O  Te52      1.0  0.61222  0.38201  0.33152  1.0000
  H   H100      1.0  0.57162  0.46672  0.18340  1.0000
  Mg  Mg26      1.0  0.69307  0.36234  0.40302  1.0000
  C   C193      1.0  0.17011  0.04113  0.74900  1.0000
  C   C194      1.0  0.21472  0.06266  0.79430  1.0000
  C  Sn53      1.0  0.19585  0.08728  0.82391  1.0000
  C  Sn54      1.0  0.13109  0.09035  0.80779  1.0000
  C   C195      1.0  0.08684  0.06868  0.76246  1.0000
  C   C196      1.0  0.10623  0.04413  0.73311  1.0000
  H   H101      1.0  0.18512  0.02213  0.72632  1.0000
  O  Te53      1.0  0.24104  0.10858  0.86903  1.0000
  O  Te54      1.0  0.11094  0.11473  0.83668  1.0000
  H   H102      1.0  0.07169  0.02746  0.69808  1.0000
  Mg  Mg27      1.0  0.19034  0.13786  0.89528  1.0000
  C   C197      1.0  0.16720  0.95811  0.24586  1.0000
  C   C198      1.0  0.21216  0.93842  0.29869  1.0000
  C  Sn55      1.0  0.19251  0.91345  0.32620  1.0000
  C  Sn56      1.0  0.12659  0.90816  0.30022  1.0000
  C   C199      1.0  0.08199  0.92798  0.24732  1.0000
  C   C200      1.0  0.10218  0.95290  0.22018  1.0000
  H   H103      1.0  0.18281  0.97739  0.22483  1.0000
  O  Te55      1.0  0.23806  0.89400  0.37899  1.0000
  O  Te56      1.0  0.10564  0.88337  0.32676  1.0000
  H   H104      1.0  0.06736  0.96814  0.17924  1.0000
  Mg  Mg28      1.0  0.18595  0.86332  0.39838  1.0000
  C   C201      1.0  0.59776  0.83202  0.80796  1.0000
  C   C202      1.0  0.65004  0.81310  0.84074  1.0000
  C  Sn57      1.0  0.71189  0.82443  0.87056  1.0000
  C  Sn58      1.0  0.72143  0.85528  0.86743  1.0000
  C   C203      1.0  0.66882  0.87403  0.83457  1.0000
  C   C204      1.0  0.60713  0.86245  0.80489  1.0000
  H   H105      1.0  0.55003  0.82307  0.78503  1.0000
  O  Te57      1.0  0.76359  0.80522  0.90308  1.0000
  O  Te58      1.0  0.78274  0.86720  0.89683  1.0000
  H   H106      1.0  0.56667  0.87711  0.77956  1.0000
  Mg  Mg29      1.0  0.83796  0.83202  0.93544  1.0000
  C   C205      1.0  0.60542  0.15179  0.29019  1.0000
  C   C206      1.0  0.65556  0.13165  0.31600  1.0000
  C  Sn59      1.0  0.71743  0.14072  0.36823  1.0000
  C  Sn60      1.0  0.72917  0.17051  0.39504  1.0000
  C   C207      1.0  0.67868  0.19049  0.36892  1.0000
  C   C208      1.0  0.61695  0.18118  0.31663  1.0000
  H   H107      1.0  0.55765  0.14459  0.24977  1.0000
  O  Te59      1.0  0.76698  0.12031  0.39341  1.0000
  O  Te60      1.0  0.79055  0.18016  0.44728  1.0000
  H   H108      1.0  0.57813  0.19678  0.29670  1.0000
  Mg  Mg30      1.0  0.84238  0.14407  0.46471  1.0000
  C   C209      1.0  0.10838  0.34671  0.79271  1.0000
  C   C210      1.0  0.15755  0.36753  0.82556  1.0000
  C  Sn61      1.0  0.21958  0.35855  0.87627  1.0000
  C  Sn62      1.0  0.23247  0.32814  0.89430  1.0000
  C   C211      1.0  0.18296  0.30747  0.86108  1.0000
  C   C212      1.0  0.12106  0.31671  0.81044  1.0000
  H   H109      1.0  0.06049  0.35385  0.75349  1.0000
  O  Te61      1.0  0.26814  0.37965  0.90861  1.0000
  O  Te62      1.0  0.29404  0.31855  0.94478  1.0000
  H   H110      1.0  0.08300  0.30058  0.78497  1.0000
  Mg  Mg31      1.0  0.34424  0.35570  0.97419  1.0000
  C   C213      1.0  0.10346  0.66868  0.30653  1.0000
  C   C214      1.0  0.15575  0.68687  0.35141  1.0000
  C  Sn63      1.0  0.21746  0.67554  0.38352  1.0000
  C  Sn64      1.0  0.22683  0.64544  0.37032  1.0000
  C   C215      1.0  0.17421  0.62743  0.32528  1.0000
  C   C216      1.0  0.11267  0.63900  0.29346  1.0000
  H   H111      1.0  0.05585  0.67763  0.28186  1.0000
  O  Te63      1.0  0.26917  0.69401  0.42824  1.0000
  O  Te64      1.0  0.28799  0.63354  0.40169  1.0000
  H   H112      1.0  0.07219  0.62492  0.25866  1.0000
  Mg  Mg32      1.0  0.34330  0.66755  0.45862  1.0000
  C   C217      1.0  0.65441  0.68808  0.74232  1.0000
  C   C218      1.0  0.69562  0.69950  0.81831  1.0000
  C  Sn65      1.0  0.75801  0.68916  0.85872  1.0000
  C  Sn66      1.0  0.77942  0.66699  0.82223  1.0000
  C   C219      1.0  0.73783  0.65572  0.74616  1.0000
  C   C220      1.0  0.67548  0.66621  0.70626  1.0000
  H   H113      1.0  0.60618  0.69621  0.71142  1.0000
  O  Te65      1.0  0.79856  0.70081  0.93463  1.0000
  O  Te66      1.0  0.84154  0.65627  0.86127  1.0000
  H   H114      1.0  0.64360  0.65738  0.64740  1.0000
  Mg  Mg33      1.0  0.87892  0.67906  0.96387  1.0000
  C   C221      1.0  0.79272  0.32615  0.33232  1.0000
  C   C222      1.0  0.74700  0.34068  0.26480  1.0000
  C  Sn67      1.0  0.68249  0.33368  0.23620  1.0000
  C  Sn68      1.0  0.66354  0.31173  0.27607  1.0000
  C   C223      1.0  0.70965  0.29734  0.34360  1.0000
  C   C224      1.0  0.77407  0.30451  0.37170  1.0000
  H   H115      1.0  0.84256  0.33171  0.35409  1.0000
  O  Te67      1.0  0.63744  0.34839  0.16865  1.0000
  O  Te68      1.0  0.59939  0.30430  0.24878  1.0000
  H   H116      1.0  0.80945  0.29327  0.42400  1.0000
  Mg  Mg34      1.0  0.55580  0.33053  0.15432  1.0000
  C   C225      1.0  0.15672  0.16923  0.74459  1.0000
  C   C226      1.0  0.21236  0.15692  0.74775  1.0000
  C  Sn69      1.0  0.27190  0.16661  0.80582  1.0000
  C  Sn70      1.0  0.27566  0.18904  0.86169  1.0000
  C   C227      1.0  0.21971  0.20120  0.85805  1.0000
  C   C228      1.0  0.16038  0.19134  0.79968  1.0000
  H   H117      1.0  0.11082  0.16159  0.69946  1.0000
  O  Te69      1.0  0.32702  0.15409  0.80812  1.0000
  O  Te70      1.0  0.33454  0.19913  0.92036  1.0000
  H   H118      1.0  0.11731  0.20086  0.79728  1.0000
  Mg  Mg35      1.0  0.39615  0.17522  0.89920  1.0000
  C   C229      1.0  0.15258  0.81582  0.25883  1.0000
  C   C230      1.0  0.19904  0.79983  0.32217  1.0000
  C  Sn71      1.0  0.26301  0.80831  0.35419  1.0000
  C  Sn72      1.0  0.28063  0.83327  0.32208  1.0000
  C   C231      1.0  0.23378  0.84913  0.25875  1.0000
  C   C232      1.0  0.16992  0.84045  0.22715  1.0000
  H   H119      1.0  0.10316  0.80911  0.23440  1.0000
  O  Te71      1.0  0.30883  0.79208  0.41745  1.0000
  O  Te72      1.0  0.34421  0.84223  0.35297  1.0000
  H   H120      1.0  0.13395  0.85284  0.17814  1.0000
  Mg  Mg36      1.0  0.38925  0.81299  0.43918  1.0000
  C   C233      1.0  0.68949  0.82979  0.10158  1.0000
  C   C234      1.0  0.63030  0.84319  0.07792  1.0000
  C  Sn73      1.0  0.57654  0.83219  0.01169  1.0000
  C  Sn74      1.0  0.93135  0.80880  0.96848  1.0000
  C   C235      1.0  0.99077  0.79555  0.99267  1.0000
  C   C236      1.0  0.69518  0.80525  0.05902  1.0000
  H   H121      1.0  0.73088  0.83844  0.15294  1.0000
  O  Te73      1.0  0.86685  0.84733  0.98885  1.0000
  O  Te74      1.0  0.87839  0.79736  0.90208  1.0000
  H   H122      1.0  0.74099  0.79486  0.07735  1.0000
  Mg  Mg37      1.0  0.80855  0.82361  0.89427  1.0000
  C   C237      1.0  0.70103  0.18634  0.59222  1.0000
  C   C238      1.0  0.66465  0.19837  0.51563  1.0000
  C  Sn75      1.0  0.60188  0.18897  0.46931  1.0000
  C  Sn76      1.0  0.57517  0.16713  0.50042  1.0000
  C   C239      1.0  0.61196  0.15526  0.57714  1.0000
  C   C240      1.0  0.67472  0.16481  0.62296  1.0000
  H   H123      1.0  0.74958  0.19375  0.62770  1.0000
  O  Te75      1.0  0.56620  0.20120  0.39289  1.0000
  O  Te76      1.0  0.51256  0.15735  0.45542  1.0000
  H   H124      1.0  0.70287  0.15552  0.68228  1.0000
  Mg  Mg38      1.0  0.48302  0.18067  0.35452  1.0000
  C   C241      1.0  0.07581  0.31399  0.96720  1.0000
  C   C242      1.0  0.13612  0.30232  0.98767  1.0000
  C  Sn77      1.0  0.83964  0.31049  0.05750  1.0000
  C  Sn78      1.0  0.83157  0.33224  0.10768  1.0000
  C   C243      1.0  0.77103  0.34376  0.08671  1.0000
  C   C244      1.0  0.71872  0.33394  0.01667  1.0000
  H   H125      1.0  0.03532  0.30638  0.91304  1.0000
  O  Te77      1.0  0.89956  0.29861  0.07704  1.0000
  O  Te78      1.0  0.88333  0.34229  0.17783  1.0000
  H   H126      1.0  0.67202  0.34297  0.00087  1.0000
  Mg  Mg39      1.0  0.95549  0.31940  0.17886  1.0000
  C   C245      1.0  0.06806  0.67544  0.49538  1.0000
  C   C246      1.0  0.10840  0.65735  0.55860  1.0000
  C  Sn79      1.0  0.17395  0.66279  0.59669  1.0000
  C  Sn80      1.0  0.19944  0.68680  0.57091  1.0000
  C   C247      1.0  0.15868  0.70478  0.50765  1.0000
  C   C248      1.0  0.09316  0.69914  0.46993  1.0000
  H   H127      1.0  0.01737  0.67108  0.46622  1.0000
  O  Te79      1.0  0.21357  0.64450  0.65974  1.0000
  O  Te80      1.0  0.26476  0.69274  0.60794  1.0000
  H   H128      1.0  0.06194  0.71315  0.42102  1.0000
  Mg  Mg40      1.0  0.29935  0.66153  0.69121  1.0000
  C   C249      1.0  0.40162  0.54264  0.87595  1.0000
  C   C250      1.0  0.39792  0.56219  0.81542  1.0000
  C  Sn81      1.0  0.36637  0.58910  0.80524  1.0000
  C  Sn82      1.0  0.33806  0.59653  0.85673  1.0000
  C   C251      1.0  0.34206  0.57683  0.91715  1.0000
  C   C252      1.0  0.37373  0.54995  0.92678  1.0000
  H   H129      1.0  0.42615  0.52185  0.88344  1.0000
  O  Te81      1.0  0.36310  0.60837  0.74444  1.0000
  O  Te82      1.0  0.30625  0.62329  0.84791  1.0000
  H   H130      1.0  0.37662  0.53483  0.97369  1.0000
  Mg  Mg41      1.0  0.31455  0.64222  0.75624  1.0000
  C   C253      1.0  0.39859  0.45891  0.37288  1.0000
  C   C254      1.0  0.40291  0.43652  0.32329  1.0000
  C  Sn83      1.0  0.37236  0.40941  0.31722  1.0000
  C  Sn84      1.0  0.33686  0.40471  0.36167  1.0000
  C   C255      1.0  0.33279  0.42726  0.41107  1.0000
  C   C256      1.0  0.36356  0.45430  0.41672  1.0000
  H   H131      1.0  0.42236  0.47984  0.37722  1.0000
  O  Te83      1.0  0.37719  0.38726  0.26742  1.0000
  O  Te84      1.0  0.30584  0.37783  0.35670  1.0000
  H   H132      1.0  0.36017  0.47165  0.45508  1.0000
  Mg  Mg42      1.0  0.32651  0.35444  0.28067  1.0000
  C   C257      1.0  0.85368  0.09553  0.82090  1.0000
  C   C258      1.0  0.89151  0.07371  0.81065  1.0000
  C  Sn85      1.0  0.90441  0.04765  0.85553  1.0000
  C  Sn86      1.0  0.87890  0.04341  0.91167  1.0000
  C   C259      1.0  0.84107  0.06537  0.92144  1.0000
  C   C260      1.0  0.82847  0.09137  0.87623  1.0000
  H   H133      1.0  0.84390  0.11564  0.78590  1.0000
  O  Te85      1.0  0.94232  0.02608  0.84456  1.0000
  O  Te86      1.0  0.89103  0.01757  0.95729  1.0000
  H   H134      1.0  0.79915  0.10825  0.88415  1.0000
  Mg  Mg43      1.0  0.95334  0.99464  0.92081  1.0000
  C   C261      1.0  0.82870  0.90314  0.33908  1.0000
  C   C262      1.0  0.83452  0.92339  0.39936  1.0000
  C  Sn87      1.0  0.86839  0.94973  0.40868  1.0000
  C  Sn88      1.0  0.89690  0.95585  0.35660  1.0000
  C   C263      1.0  0.89077  0.93546  0.29646  1.0000
  C   C264      1.0  0.85679  0.90917  0.28767  1.0000
  H   H135      1.0  0.80238  0.88280  0.33225  1.0000
  O  Te87      1.0  0.87375  0.96971  0.46923  1.0000
  O  Te88      1.0  0.93099  0.98201  0.36458  1.0000
  H   H136      1.0  0.85226  0.89350  0.24097  1.0000
  Mg  Mg44      1.0  0.91705  0.00232  0.45621  1.0000
  C   C265      1.0  0.74295  0.46399  0.47665  1.0000
  C   C266      1.0  0.77699  0.44729  0.54625  1.0000
  C  Sn89      1.0  0.82685  0.46013  0.61377  1.0000
  C  Sn90      1.0  0.84280  0.49026  0.61138  1.0000
  C   C267      1.0  0.80843  0.50679  0.54148  1.0000
  C   C268      1.0  0.75864  0.49371  0.47425  1.0000
  H   H137      1.0  0.70440  0.45388  0.42464  1.0000
  O  Te89      1.0  0.86038  0.44312  0.68281  1.0000
  O  Te90      1.0  0.89240  0.50366  0.67802  1.0000
  H   H138      1.0  0.73227  0.50666  0.42039  1.0000
  Mg  Mg45      1.0  0.92406  0.47132  0.75820  1.0000
  C   C269      1.0  0.74818  0.53754  0.97418  1.0000
  C   C270      1.0  0.42241  0.55063  0.04884  1.0000
  C  Sn91      1.0  0.46794  0.53718  0.11860  1.0000
  C  Sn92      1.0  0.49047  0.50860  0.11332  1.0000
  C   C271      1.0  0.46688  0.49420  0.03833  1.0000
  C   C272      1.0  0.77040  0.50935  0.96891  1.0000
  H   H139      1.0  0.71295  0.54811  0.92046  1.0000
  O  Te91      1.0  0.49071  0.55205  0.19272  1.0000
  O  Te92      1.0  0.53598  0.49464  0.18208  1.0000
  H   H140      1.0  0.75238  0.49806  0.91111  1.0000
  Mg  Mg46      1.0  0.55249  0.52387  0.26933  1.0000
  C   C273      1.0  0.24374  0.96358  0.47732  1.0000
  C   C274      1.0  0.27543  0.94801  0.54963  1.0000
  C  Sn93      1.0  0.32212  0.96198  0.61801  1.0000
  C  Sn94      1.0  0.33725  0.99210  0.61374  1.0000
  C   C275      1.0  0.29727  0.00750  0.54113  1.0000
  C   C276      1.0  0.25861  0.99330  0.47306  1.0000
  H   H141      1.0  0.20764  0.95260  0.42466  1.0000
  O  Te93      1.0  0.35334  0.94609  0.68976  1.0000
  O  Te94      1.0  0.37573  0.00661  0.68118  1.0000
  H   H142      1.0  0.22609  0.00537  0.41710  1.0000
  Mg  Mg47      1.0  0.41307  0.97555  0.76528  1.0000
  C   C277      1.0  0.34771  0.01440  0.12033  1.0000
  C   C278      1.0  0.31880  0.99756  0.05154  1.0000
  C  Sn95      1.0  0.60989  0.01205  0.98515  1.0000
  C  Sn96      1.0  0.59664  0.04247  0.98787  1.0000
  C   C279      1.0  0.28475  0.05765  0.05695  1.0000
  C   C280      1.0  0.33469  0.04442  0.12305  1.0000
  H   H143      1.0  0.38637  0.00417  0.17146  1.0000
  O  Te95      1.0  0.58147  0.99490  0.91691  1.0000
  O  Te96      1.0  0.54693  0.05602  0.92237  1.0000
  H   H144      1.0  0.36326  0.05746  0.17629  1.0000
  Mg  Mg48      1.0  0.51085  0.02340  0.84295  1.0000
  C   C281      1.0  0.31146  0.52597  0.43685  1.0000
  C   C282      1.0  0.29899  0.54371  0.36953  1.0000
  C  Sn97      1.0  0.32861  0.57127  0.37928  1.0000
  C  Sn98      1.0  0.37151  0.58118  0.45795  1.0000
  C   C283      1.0  0.38370  0.56326  0.52491  1.0000
  C   C284      1.0  0.35379  0.53572  0.51447  1.0000
  H   H145      1.0  0.28834  0.50466  0.42878  1.0000
  O  Te97      1.0  0.31559  0.58873  0.31137  1.0000
  O  Te98      1.0  0.40179  0.60863  0.46942  1.0000
  H   H146      1.0  0.36349  0.52198  0.56660  1.0000
  Mg  Mg49      1.0  0.36858  0.62442  0.35804  1.0000
  C   C285      1.0  0.36326  0.41647  0.94277  1.0000
  C   C286      1.0  0.02913  0.43319  0.01020  1.0000
  C  Sn99      1.0  0.00063  0.46086  0.00119  1.0000
  C  Sn100     1.0  0.30542  0.47190  0.92314  1.0000
  C   C287      1.0  0.29074  0.45352  0.85607  1.0000
  C   C288      1.0  0.31956  0.42588  0.86577  1.0000
  H   H147      1.0  0.38552  0.39508  0.95027  1.0000
  O  Te99      1.0  0.01613  0.47877  0.06920  1.0000
  O  Te100     1.0  0.27622  0.49945  0.91241  1.0000
  H   H148      1.0  0.30794  0.41178  0.81355  1.0000
  Mg  Mg50      1.0  0.96379  0.51444  0.02365  1.0000
  C   C289      1.0  0.80629  0.02631  0.43900  1.0000
  C   C290      1.0  0.79342  0.04382  0.37116  1.0000
  C  Sn101     1.0  0.82361  0.07118  0.37987  1.0000
  C  Sn102     1.0  0.86748  0.08113  0.45804  1.0000
  C   C291      1.0  0.88006  0.06344  0.52553  1.0000
  C   C292      1.0  0.84957  0.03610  0.51612  1.0000
  H   H149      1.0  0.78272  0.00515  0.43173  1.0000
  O  Te101     1.0  0.81019  0.08840  0.31145  1.0000
  O  Te102     1.0  0.89834  0.10838  0.46848  1.0000
  H   H150      1.0  0.85957  0.02254  0.56865  1.0000
  Mg  Mg51      1.0  0.86426  0.12390  0.35672  1.0000
  C   C293      1.0  0.84335  0.91919  0.89342  1.0000
  C   C294      1.0  0.80190  0.94268  0.85742  1.0000
  C  Sn103     1.0  0.79724  0.96572  0.90501  1.0000
  C  Sn104     1.0  0.83485  0.96519  0.99020  1.0000
  C   C295      1.0  0.52713  0.94013  0.02563  1.0000
  C   C296      1.0  0.88049  0.91866  0.97744  1.0000
  H   H151      1.0  0.84669  0.90144  0.85613  1.0000
  O  Te103     1.0  0.75556  0.98901  0.86806  1.0000
  O  Te104     1.0  0.48206  0.98646  0.03920  1.0000
  H   H152      1.0  0.56353  0.89901  0.00532  1.0000
  Mg  Mg52      1.0  0.75936  0.01487  0.96054  1.0000
  C   C297      1.0  0.15728  0.46466  0.90784  1.0000
  C   C298      1.0  0.12739  0.45031  0.83290  1.0000
  C  Sn105     1.0  0.08466  0.46557  0.76464  1.0000
  C  Sn106     1.0  0.07172  0.49575  0.77173  1.0000
  C   C299      1.0  0.10190  0.50990  0.84696  1.0000
  C   C300      1.0  0.14456  0.49442  0.91487  1.0000
  H   H153      1.0  0.19031  0.45269  0.96039  1.0000
  O  Te105     1.0  0.05520  0.45090  0.69024  1.0000
  O  Te106     1.0  0.02924  0.51152  0.70448  1.0000
  H   H154      1.0  0.16773  0.50554  0.97288  1.0000
  Mg  Mg53      1.0  0.00096  0.48184  0.61614  1.0000
  C   C301      1.0  0.05771  0.50977  0.26260  1.0000
  C   C302      1.0  0.09394  0.49453  0.33426  1.0000
  C  Sn107     1.0  0.14197  0.50912  0.40004  1.0000
  C  Sn108     1.0  0.15383  0.53954  0.39380  1.0000
  C   C303      1.0  0.11730  0.55460  0.32187  1.0000
  C   C304      1.0  0.06937  0.53978  0.25641  1.0000
  H   H155      1.0  0.02061  0.49831  0.21196  1.0000
  O  Te107     1.0  0.17773  0.49355  0.47117  1.0000
  O  Te108     1.0  0.20152  0.55467  0.45863  1.0000
  H   H156      1.0  0.04130  0.55160  0.20096  1.0000
  Mg  Mg54      1.0  0.23749  0.52386  0.54285  1.0000
  C   C305      1.0  0.55768  0.97516  0.74731  1.0000
  C   C306      1.0  0.60110  0.95346  0.79250  1.0000
  C  Sn109     1.0  0.64399  0.95884  0.87325  1.0000
  C  Sn110     1.0  0.64328  0.98648  0.90926  1.0000
  C   C307      1.0  0.59166  0.00803  0.86355  1.0000
  C   C308      1.0  0.54896  0.00242  0.78279  1.0000
  H   H157      1.0  0.52462  0.97081  0.68483  1.0000
  O  Te109     1.0  0.68707  0.93692  0.91753  1.0000
  O  Te110     1.0  0.68561  0.99243  0.98986  1.0000
  H   H158      1.0  0.51532  0.01922  0.74783  1.0000
  Mg  Mg55      1.0  0.38624  0.95404  0.02529  1.0000
  C   C309      1.0  0.56750  0.02289  0.24489  1.0000
  C   C310      1.0  0.60039  0.04651  0.29526  1.0000
  C  Sn111     1.0  0.63634  0.04217  0.37841  1.0000
  C  Sn112     1.0  0.63934  0.01363  0.41158  1.0000
  C   C311      1.0  0.61427  0.99014  0.36068  1.0000
  C   C312      1.0  0.57842  0.99473  0.27756  1.0000
  H   H159      1.0  0.53979  0.02643  0.18058  1.0000
  O  Te111     1.0  0.66889  0.06601  0.42787  1.0000
  O  Te112     1.0  0.67493  0.00867  0.49448  1.0000
  H   H160      1.0  0.55300  0.97643  0.23857  1.0000
  Mg  Mg56      1.0  0.71097  0.04817  0.53707  1.0000
  C   C313      1.0  0.16433  0.55958  0.80601  1.0000
  C   C314      1.0  0.11166  0.55868  0.82256  1.0000
  C  Sn113     1.0  0.06258  0.57915  0.78703  1.0000
  C  Sn114     1.0  0.06644  0.60087  0.73395  1.0000
  C   C315      1.0  0.11931  0.60156  0.71774  1.0000
  C   C316      1.0  0.16816  0.58099  0.75364  1.0000
  H   H161      1.0  0.20211  0.54365  0.83375  1.0000
  O  Te113     1.0  0.01030  0.57795  0.80424  1.0000
  O  Te114     1.0  0.01805  0.62158  0.69759  1.0000
  H   H162      1.0  0.20892  0.58167  0.74077  1.0000
  Mg  Mg57      1.0  0.95646  0.61096  0.73996  1.0000
  C   C317      1.0  0.04161  0.41548  0.25528  1.0000
  C   C318      1.0  0.08213  0.43572  0.31252  1.0000
  C  Sn115     1.0  0.14437  0.43981  0.32272  1.0000
  C  Sn116     1.0  0.16632  0.42331  0.27464  1.0000
  C   C319      1.0  0.12540  0.40314  0.21750  1.0000
  C   C320      1.0  0.06322  0.39921  0.20780  1.0000
  H   H163      1.0  0.99349  0.41246  0.24774  1.0000
  O  Te115     1.0  0.18423  0.46011  0.38021  1.0000
  O  Te116     1.0  0.22830  0.42697  0.28357  1.0000
  H   H164      1.0  0.03184  0.38356  0.16345  1.0000
  Mg  Mg58      1.0  0.26466  0.45727  0.36998  1.0000
  C   C321      1.0  0.55018  0.09510  0.72544  1.0000
  C   C322      1.0  0.60871  0.10079  0.72511  1.0000
  C  Sn117     1.0  0.66163  0.08341  0.77104  1.0000
  C  Sn118     1.0  0.65568  0.05990  0.81810  1.0000
  C   C323      1.0  0.59691  0.05437  0.81798  1.0000
  C   C324      1.0  0.54427  0.07191  0.77182  1.0000
  H   H165      1.0  0.50944  0.10865  0.68969  1.0000
  O  Te117     1.0  0.71975  0.08940  0.77004  1.0000
  O  Te118     1.0  0.70780  0.04218  0.86454  1.0000
  H   H166      1.0  0.49895  0.06748  0.77205  1.0000
  Mg  Mg59      1.0  0.77699  0.05907  0.84337  1.0000
  C   C325      1.0  0.54793  0.90042  0.23289  1.0000
  C   C326      1.0  0.60009  0.89988  0.21528  1.0000
  C  Sn119     1.0  0.65031  0.91992  0.25273  1.0000
  C  Sn120     1.0  0.64814  0.94085  0.30884  1.0000
  C   C327      1.0  0.59576  0.94120  0.32608  1.0000
  C   C328      1.0  0.54576  0.92106  0.28824  1.0000
  H   H167      1.0  0.50925  0.88483  0.20365  1.0000
  O  Te119     1.0  0.70205  0.91908  0.23443  1.0000
  O  Te120     1.0  0.69769  0.96113  0.34716  1.0000
  H   H168      1.0  0.50540  0.92147  0.30193  1.0000
  Mg  Mg60      1.0  0.75795  0.95125  0.30225  1.0000
  C   C329      1.0  0.73307  0.73243  0.16101  1.0000
  C   C330      1.0  0.68504  0.73638  0.08237  1.0000
  C  Sn121     1.0  0.62146  0.73831  0.06819  1.0000
  C  Sn122     1.0  0.60582  0.73624  0.13409  1.0000
  C   C331      1.0  0.65422  0.73232  0.21256  1.0000
  C   C332      1.0  0.71769  0.73041  0.22606  1.0000
  H   H169      1.0  0.78218  0.73097  0.17147  1.0000
  O  Te121     1.0  0.92315  0.74372  0.98923  1.0000
  O  Te122     1.0  0.54267  0.73811  0.12164  1.0000
  H   H170      1.0  0.75487  0.72737  0.28696  1.0000
  Mg  Mg61      1.0  0.49498  0.74349  0.00302  1.0000
  C   C333      1.0  0.60077  0.25621  0.57568  1.0000
  C   C334      1.0  0.65467  0.26057  0.56290  1.0000
  C  Sn123     1.0  0.71186  0.27011  0.62636  1.0000
  C  Sn124     1.0  0.71499  0.27537  0.70399  1.0000
  C   C335      1.0  0.66081  0.27093  0.71617  1.0000
  C   C336      1.0  0.60382  0.26138  0.65223  1.0000
  H   H171      1.0  0.55668  0.24881  0.52623  1.0000
  O  Te123     1.0  0.76525  0.27437  0.61254  1.0000
  O  Te124     1.0  0.77154  0.28491  0.76848  1.0000
  H   H172      1.0  0.56211  0.25799  0.66216  1.0000
  Mg  Mg62      1.0  0.83144  0.28756  0.71957  1.0000
  C   C337      1.0  0.23681  0.23292  0.16885  1.0000
  C   C338      1.0  0.18845  0.23754  0.09078  1.0000
  C  Sn125     1.0  0.12596  0.24231  0.07852  1.0000
  C  Sn126     1.0  0.11178  0.24246  0.14580  1.0000
  C   C339      1.0  0.16051  0.23784  0.22367  1.0000
  C   C340      1.0  0.22287  0.23307  0.23524  1.0000
  H   H173      1.0  0.28507  0.22925  0.17782  1.0000
  O  Te125     1.0  0.07821  0.24688  0.00011  1.0000
  O  Te126     1.0  0.04974  0.24719  0.13528  1.0000
  H   H174      1.0  0.26031  0.22952  0.29571  1.0000
  Mg  Mg63      1.0  0.00101  0.25236  0.01670  1.0000
  C   C341      1.0  0.23844  0.77042  0.70819  1.0000
  C   C342      1.0  0.18417  0.77143  0.72135  1.0000
  C  Sn127     1.0  0.12416  0.76549  0.65793  1.0000
  C  Sn128     1.0  0.11853  0.75840  0.57998  1.0000
  C   C343      1.0  0.17312  0.75743  0.56746  1.0000
  C   C344      1.0  0.23293  0.76342  0.63133  1.0000
  H   H175      1.0  0.28472  0.77504  0.75762  1.0000
  O  Te127     1.0  0.07043  0.76660  0.67212  1.0000
  O  Te128     1.0  0.05915  0.75235  0.51554  1.0000
  H   H176      1.0  0.27494  0.76262  0.62114  1.0000
  Mg  Mg64      1.0  0.99992  0.75666  0.56500  1.0000
  C   C345      1.0  0.75057  0.55987  0.58414  1.0000
  C   C346      1.0  0.80410  0.55613  0.57032  1.0000
  C  Sn129     1.0  0.85956  0.57245  0.61487  1.0000
  C  Sn130     1.0  0.86133  0.59288  0.67433  1.0000
  C   C347      1.0  0.80754  0.59645  0.68774  1.0000
  C   C348      1.0  0.75228  0.58001  0.64280  1.0000
  H   H177      1.0  0.70782  0.54714  0.54940  1.0000
  O  Te129     1.0  0.91261  0.56844  0.60027  1.0000
  O  Te130     1.0  0.91615  0.60947  0.71975  1.0000
  H   H178      1.0  0.71086  0.58290  0.65355  1.0000
  Mg  Mg65      1.0  0.97623  0.59618  0.67767  1.0000
  C   C349      1.0  0.75156  0.43983  0.08505  1.0000
  C   C350      1.0  0.80731  0.44643  0.07833  1.0000
  C  Sn131     1.0  0.86219  0.42971  0.12022  1.0000
  C  Sn132     1.0  0.86109  0.40594  0.16968  1.0000
  C   C351      1.0  0.80506  0.39950  0.17595  1.0000
  C   C352      1.0  0.75042  0.41638  0.13380  1.0000
  H   H179      1.0  0.70927  0.45288  0.05240  1.0000
  O  Te131     1.0  0.91750  0.43661  0.11285  1.0000
  O  Te132     1.0  0.91525  0.38886  0.21218  1.0000
  H   H180      1.0  0.70724  0.41125  0.13897  1.0000
  Mg  Mg66      1.0  0.97916  0.40690  0.18268  1.0000
  C   C353      1.0  0.24088  0.07188  0.60771  1.0000
  C   C354      1.0  0.28388  0.09125  0.66541  1.0000
  C  Sn133     1.0  0.34602  0.09402  0.67420  1.0000
  C  Sn134     1.0  0.36532  0.07707  0.62420  1.0000
  C   C355      1.0  0.32193  0.05776  0.56662  1.0000
  C   C356      1.0  0.25987  0.05515  0.55835  1.0000
  H   H181      1.0  0.19285  0.06986  0.60127  1.0000
  O  Te133     1.0  0.38838  0.11347  0.73217  1.0000
  O  Te134     1.0  0.42713  0.07942  0.63170  1.0000
  H   H182      1.0  0.22658  0.04016  0.51363  1.0000
  Mg  Mg67      1.0  0.46750  0.10894  0.71948  1.0000
  C   C357      1.0  0.36625  0.90926  0.16395  1.0000
  C   C358      1.0  0.31313  0.90571  0.17883  1.0000
  C  Sn135     1.0  0.25755  0.92162  0.13401  1.0000
  C  Sn136     1.0  0.25526  0.94142  0.07319  1.0000
  C   C359      1.0  0.30865  0.94480  0.05873  1.0000
  C   C360      1.0  0.36402  0.92878  0.10395  1.0000
  H   H183      1.0  0.40909  0.89685  0.19891  1.0000
  O  Te135     1.0  0.20492  0.91782  0.14968  1.0000
  O  Te136     1.0  0.20032  0.95759  0.02747  1.0000
  H   H184      1.0  0.40513  0.93151  0.09238  1.0000
  Mg  Mg68      1.0  0.14094  0.94480  0.07136  1.0000
  C   C361      1.0  0.12363  0.52697  0.04881  1.0000
  C   C362      1.0  0.47071  0.54361  0.98173  1.0000
  C  Sn137     1.0  0.51443  0.56623  0.99211  1.0000
  C  Sn138     1.0  0.21189  0.57227  0.07120  1.0000
  C   C363      1.0  0.21353  0.55696  0.13792  1.0000
  C   C364      1.0  0.16954  0.53437  0.12684  1.0000
  H   H185      1.0  0.08961  0.50947  0.04025  1.0000
  O  Te137     1.0  0.51174  0.58116  0.92443  1.0000
  O  Te138     1.0  0.25618  0.59478  0.08331  1.0000
  H   H186      1.0  0.17113  0.52262  0.17879  1.0000
  Mg  Mg69      1.0  0.58235  0.61018  0.97200  1.0000
  C   C365      1.0  0.18267  0.42760  0.51152  1.0000
  C   C366      1.0  0.13382  0.44806  0.47427  1.0000
  C  Sn139     1.0  0.11999  0.46856  0.52093  1.0000
  C  Sn140     1.0  0.15582  0.46852  0.60645  1.0000
  C   C367      1.0  0.20463  0.44798  0.64313  1.0000
  C   C368      1.0  0.21805  0.42756  0.59587  1.0000
  H   H187      1.0  0.19309  0.41182  0.47496  1.0000
  O  Te139     1.0  0.07100  0.48883  0.48273  1.0000
  O  Te140     1.0  0.14302  0.48877  0.65453  1.0000
  H   H188      1.0  0.25591  0.41174  0.62473  1.0000
  Mg  Mg70      1.0  0.07157  0.51203  0.57430  1.0000
  C   C369      1.0  0.62337  0.02515  0.04760  1.0000
  C   C370      1.0  0.96788  0.04337  0.98159  1.0000
  C  Sn141     1.0  0.00692  0.06812  0.99370  1.0000
  C  Sn142     1.0  0.70224  0.07473  0.07345  1.0000
  C   C371      1.0  0.70649  0.05783  0.13908  1.0000
  C   C372      1.0  0.66718  0.03311  0.12627  1.0000
  H   H189      1.0  0.59298  0.00602  0.03770  1.0000
  O  Te141     1.0  0.00171  0.08460  0.92708  1.0000
  O  Te142     1.0  0.74186  0.09936  0.08728  1.0000
  H   H190      1.0  0.67076  0.02015  0.17739  1.0000
  Mg  Mg71      1.0  0.06604  0.11630  0.97691  1.0000
  C   C373      1.0  0.68490  0.92865  0.50542  1.0000
  C   C374      1.0  0.63173  0.94690  0.46920  1.0000
  C  Sn143     1.0  0.61330  0.96477  0.51692  1.0000
  C  Sn144     1.0  0.64887  0.96433  0.60247  1.0000
  C   C375      1.0  0.70202  0.94602  0.63811  1.0000
  C   C376      1.0  0.72003  0.92821  0.58979  1.0000
  H   H191      1.0  0.69886  0.91489  0.46804  1.0000
  O  Te143     1.0  0.56003  0.98287  0.47975  1.0000
  O  Te144     1.0  0.63152  0.98198  0.65160  1.0000
  H   H192      1.0  0.76122  0.91410  0.61785  1.0000
  Mg  Mg72      1.0  0.54731  0.00291  0.57253  1.0000
  C   C377      1.0  0.91150  0.58131  0.99299  1.0000
  C   C378      1.0  0.59723  0.55444  0.02873  1.0000
  C  Sn145     1.0  0.95187  0.53333  0.98054  1.0000
  C  Sn146     1.0  0.92198  0.53627  0.89501  1.0000
  C   C379      1.0  0.88729  0.56175  0.85985  1.0000
  C   C380      1.0  0.88202  0.58422  0.90864  1.0000
  H   H193      1.0  0.55836  0.59721  0.03074  1.0000
  O  Te145     1.0  0.63773  0.50663  0.01723  1.0000
  O  Te146     1.0  0.92678  0.51403  0.84541  1.0000
  H   H194      1.0  0.85509  0.60388  0.88095  1.0000
  Mg  Mg73      1.0  0.97958  0.48386  0.92392  1.0000
  C   C381      1.0  0.54242  0.41514  0.45057  1.0000
  C   C382      1.0  0.53030  0.43267  0.38297  1.0000
  C  Sn147     1.0  0.56137  0.45981  0.39211  1.0000
  C  Sn148     1.0  0.60537  0.46953  0.47047  1.0000
  C   C383      1.0  0.61720  0.45183  0.53771  1.0000
  C   C384      1.0  0.58584  0.42471  0.52787  1.0000
  H   H195      1.0  0.51818  0.39415  0.44297  1.0000
  O  Te147     1.0  0.54868  0.47705  0.32393  1.0000
  O  Te148     1.0  0.63711  0.49657  0.48133  1.0000
  H   H196      1.0  0.59526  0.41113  0.58022  1.0000
  Mg  Mg74      1.0  0.60380  0.51220  0.36977  1.0000
  C   C385      1.0  0.07988  0.02859  0.90621  1.0000
  C   C386      1.0  0.03985  0.05262  0.87128  1.0000
  C  Sn149     1.0  0.03576  0.07539  0.92002  1.0000
  C  Sn150     1.0  0.72341  0.07252  0.00530  1.0000
  C   C387      1.0  0.76335  0.04840  0.03964  1.0000
  C   C388      1.0  0.11615  0.02722  0.99030  1.0000
  H   H197      1.0  0.08279  0.01106  0.86803  1.0000
  O  Te149     1.0  0.99550  0.09923  0.88414  1.0000
  O  Te150     1.0  0.72024  0.09498  0.05543  1.0000
  H   H198      1.0  0.79809  0.00714  0.01736  1.0000
  Mg  Mg75      1.0  0.00751  0.12439  0.97796  1.0000
  C   C389      1.0  0.05558  0.92061  0.48879  1.0000
  C   C390      1.0  0.09818  0.94399  0.52416  1.0000
  C  Sn151     1.0  0.10409  0.96643  0.47593  1.0000
  C  Sn152     1.0  0.06658  0.96538  0.39073  1.0000
  C   C391      1.0  0.02407  0.94190  0.35594  1.0000
  C   C392      1.0  0.01855  0.91956  0.40476  1.0000
  H   H199      1.0  0.05128  0.90333  0.52656  1.0000
  O  Te151     1.0  0.14689  0.98962  0.51225  1.0000
  O  Te152     1.0  0.07152  0.98752  0.34111  1.0000
  H   H200      1.0  0.98554  0.90147  0.37736  1.0000
  Mg  Mg76      1.0  0.12863  0.01456  0.41905  1.0000
  C   C393      1.0  0.64436  0.66453  0.95623  1.0000
  C   C394      1.0  0.68936  0.68738  0.98170  1.0000
  C  Sn153     1.0  0.40441  0.67987  0.03112  1.0000
  C  Sn154     1.0  0.42371  0.65039  0.05538  1.0000
  C   C395      1.0  0.37833  0.62768  0.02953  1.0000
  C   C396      1.0  0.66336  0.63544  0.98011  1.0000
  H   H201      1.0  0.59480  0.66938  0.91796  1.0000
  O  Te153     1.0  0.44874  0.70297  0.05603  1.0000
  O  Te154     1.0  0.48751  0.64374  0.10473  1.0000
  H   H202      1.0  0.62854  0.61774  0.96036  1.0000
  Mg  Mg77      1.0  0.53013  0.68279  0.12298  1.0000
  C   C397      1.0  0.78069  0.32717  0.53410  1.0000
  C   C398      1.0  0.72474  0.31032  0.50194  1.0000
  C  Sn155     1.0  0.66602  0.32369  0.48175  1.0000
  C  Sn156     1.0  0.66342  0.35451  0.49403  1.0000
  C   C399      1.0  0.71966  0.37117  0.52619  1.0000
  C   C400      1.0  0.77817  0.35757  0.54621  1.0000
  H   H203      1.0  0.82596  0.31665  0.54955  1.0000
  O  Te155     1.0  0.61058  0.30652  0.44970  1.0000
  O  Te156     1.0  0.60537  0.36843  0.47435  1.0000
  H   H204      1.0  0.82148  0.37062  0.57106  1.0000
  Mg  Mg78      1.0  0.54289  0.33563  0.43239  1.0000
  C   C401      1.0  0.50272  0.15182  0.99897  1.0000
  C   C402      1.0  0.20918  0.13353  0.02721  1.0000
  C  Sn157     1.0  0.26775  0.14709  0.04592  1.0000
  C  Sn158     1.0  0.27060  0.17806  0.03612  1.0000
  C   C403      1.0  0.21476  0.19468  0.00788  1.0000
  C   C404      1.0  0.50549  0.18237  0.98932  1.0000
  H   H205      1.0  0.45757  0.14116  0.98464  1.0000
  O  Te157     1.0  0.32279  0.12997  0.07404  1.0000
  O  Te158     1.0  0.32851  0.19218  0.05440  1.0000
  H   H206      1.0  0.46249  0.19539  0.96750  1.0000
  Mg  Mg79      1.0  0.39041  0.15935  0.09080  1.0000
  C   C405      1.0  0.14744  0.83405  0.47532  1.0000
  C   C406      1.0  0.19402  0.81322  0.48466  1.0000
  C  Sn159     1.0  0.25851  0.82080  0.52505  1.0000
  C  Sn160     1.0  0.27656  0.84978  0.55662  1.0000
  C   C407      1.0  0.22960  0.87046  0.54701  1.0000
  C   C408      1.0  0.16520  0.86264  0.50647  1.0000
  H   H207      1.0  0.09762  0.82801  0.44399  1.0000
  O  Te159     1.0  0.30443  0.79972  0.53382  1.0000
  O  Te160     1.0  0.34067  0.85794  0.59727  1.0000
  H   H208      1.0  0.12915  0.87877  0.49929  1.0000
  Mg  Mg80      1.0  0.38564  0.82143  0.59387  1.0000
