data_image0
_chemical_formula_structural       H48C88N32SnCSn2CSnTe4Mg2SnCSn2CSnTe4Mg2SnCSn2CSnTe4Mg2SnCSn2CSnTe4Mg2SnCSn2CSnTe4Mg2SnCSn2CSnTe4Mg2SnCSn2CSnTe4Mg2SnCSn2CSnTe4Mg2SnCSn2CSnTe4Mg2SnCSn2CSnTe4Mg2SnCSn2CSnTe4Mg2SnCSn2CSnTe4Mg2SnCSn2CSnTe4Mg2SnCSn2CSnTe4Mg2SnCSn2CSnTe4Mg2SnCSn2CSnTe4Mg2SnCSn2CSnTe4Mg2SnCSn2CSnTe4Mg2SnCSn2CSnTe4Mg2SnCSn2CSnTe4Mg2SnCSn2CSnTe4Mg2SnCSn2CSnTe4Mg2SnCSn2CSnTe4Mg2SnCSn2CSnTe4Mg2SnCSn2CSnTe4Mg2SnCSn2CSnTe4Mg2SnCSn2CSnTe4Mg2SnCSn2CSnTe4Mg2SnCSn2CSnTe4Mg2SnCSn2CSnTe4Mg2SnCSn2CSnTe4Mg2SnCSn2CSnTe4Mg2SnCSn2CSnTe4Mg2SnCSn2CSnTe4Mg2SnCSn2CSnTe4Mg2SnCSn2CSnTe4Mg2SnCSn2CSnTe4Mg2SnCSn2CSnTe4Mg2SnCSn2CSnTe4Mg2SnCSn2CSnTe4Mg2SnCSn2CSnTe4Mg2SnCSn2CSnTe4Mg2SnCSn2CSnTe4Mg2SnCSn2CSnTe4Mg2SnCSn2CSnTe4Mg2SnCSn2CSnTe4Mg2SnCSn2CSnTe4Mg2SnCSn2CSnTe4Mg2SnCSn2CSnTe4Mg2SnCSn2CSnTe4Mg2SnCSn2CSnTe4Mg2SnCSn2CSnTe4Mg2SnCSn2CSnTe4Mg2SnCSn2CSnTe4Mg2SnCSn2CSnTe4Mg2SnCSn2CSnTe4Mg2SnCSn2CSnTe4Mg2SnCSn2CSnTe4Mg2SnCSn2CSnTe4Mg2SnCSn2CSnTe4Mg2SnCSn2CSnTe4Mg2SnCSn2CSnTe4Mg2SnCSn2CSnTe4Mg2SnCSn2CSnTe4Mg2SnCSn2CSnTe4Mg2SnCSn2CSnTe4Mg2SnCSn2CSnTe4Mg2SnCSn2CSnTe4Mg2SnCSn2CSnTe4Mg2SnCSn2CSnTe4Mg2SnCSn2CSnTe4Mg2SnCSn2CSnTe4Mg2SnCSn2CSnTe4Mg2SnCSn2CSnTe4Mg2SnCSn2CSnTe4Mg2SnCSn2CSnTe4Mg2SnCSn2CSnTe4Mg2SnCSn2CSnTe4Mg2SnCSn2CSnTe4Mg2SnCSn2CSnTe4Mg2
_chemical_formula_sum              "H48 C248 N32 Sn320 Te320 Mg160"
_cell_length_a       23.4382
_cell_length_b       45.2713
_cell_length_c       18.4254
_cell_angle_alpha    90.1041
_cell_angle_beta     116.362
_cell_angle_gamma    90.2363

_symmetry_space_group_name_H-M    'P1'
_space_group_IT_number       1

loop_
  _space_group_symop_operation_xyz
  'x, y, z'

loop_
  _atom_site_type_symbol
  _atom_site_label
  _atom_site_symmetry_multiplicity
  _atom_site_fract_x
  _atom_site_fract_y
  _atom_site_fract_z
  _atom_site_occupancy
  H   H1        1.0  0.82048  0.58798  0.86621  1.0000
  H   H2        1.0  0.82019  0.41195  0.37531  1.0000
  H   H3        1.0  0.31918  0.08652  0.87726  1.0000
  H   H4        1.0  0.31493  0.91224  0.37050  1.0000
  H   H5        1.0  0.08763  0.58334  0.50208  1.0000
  H   H6        1.0  0.08762  0.41724  0.00954  1.0000
  H   H7        1.0  0.58806  0.08227  0.51437  1.0000
  H   H8        1.0  0.58280  0.91503  0.00268  1.0000
  H   H9        1.0  0.68362  0.58653  0.00743  1.0000
  H   H10       1.0  0.68621  0.41254  0.51897  1.0000
  H   H11       1.0  0.18595  0.08683  0.02041  1.0000
  H   H12       1.0  0.18413  0.91357  0.51729  1.0000
  H   H13       1.0  0.59281  0.57027  0.43634  1.0000
  H   H14       1.0  0.59512  0.42237  0.94381  1.0000
  H   H15       1.0  0.08845  0.08029  0.43731  1.0000
  H   H16       1.0  0.08691  0.92480  0.93378  1.0000
  H   H17       1.0  0.24033  0.51982  0.25693  1.0000
  H   H18       1.0  0.24141  0.48126  0.76004  1.0000
  H   H19       1.0  0.73308  0.01998  0.25945  1.0000
  H   H20       1.0  0.73863  0.97943  0.75294  1.0000
  H   H21       1.0  0.31970  0.57464  0.95281  1.0000
  H   H22       1.0  0.31976  0.42830  0.45652  1.0000
  H   H23       1.0  0.82551  0.06999  0.96335  1.0000
  H   H24       1.0  0.81173  0.93024  0.44831  1.0000
  H   H25       1.0  0.54430  0.87330  0.08434  1.0000
  H   H26       1.0  0.55364  0.12334  0.58602  1.0000
  H   H27       1.0  0.04898  0.37621  0.08417  1.0000
  H   H28       1.0  0.05342  0.62537  0.59233  1.0000
  H   H29       1.0  0.66740  0.51890  0.13092  1.0000
  H   H30       1.0  0.66920  0.48000  0.63142  1.0000
  H   H31       1.0  0.16945  0.01825  0.12964  1.0000
  H   H32       1.0  0.16343  0.98122  0.62690  1.0000
  H   H33       1.0  0.70910  0.91470  0.85777  1.0000
  H   H34       1.0  0.71272  0.08439  0.36831  1.0000
  H   H35       1.0  0.21661  0.41463  0.86871  1.0000
  H   H36       1.0  0.21432  0.58615  0.36154  1.0000
  H   H37       1.0  0.71337  0.77710  0.57353  1.0000
  H   H38       1.0  0.71618  0.22103  0.07544  1.0000
  H   H39       1.0  0.22141  0.27612  0.58388  1.0000
  H   H40       1.0  0.20349  0.72562  0.06927  1.0000
  H   H41       1.0  0.70015  0.62778  0.64048  1.0000
  H   H42       1.0  0.69621  0.37678  0.15403  1.0000
  H   H43       1.0  0.19198  0.12361  0.65263  1.0000
  H   H44       1.0  0.19304  0.87542  0.14987  1.0000
  H   H45       1.0  0.65582  0.72614  0.26593  1.0000
  H   H46       1.0  0.64790  0.27642  0.75972  1.0000
  H   H47       1.0  0.16236  0.23319  0.27794  1.0000
  H   H48       1.0  0.16562  0.77229  0.77648  1.0000
  C   C1        1.0  0.79492  0.56769  0.83639  1.0000
  C   C2        1.0  0.79415  0.43112  0.33974  1.0000
  C   C3        1.0  0.29261  0.06775  0.83913  1.0000
  C   C4        1.0  0.28912  0.93166  0.33617  1.0000
  C   C5        1.0  0.42786  0.56777  0.74886  1.0000
  C   C6        1.0  0.42706  0.43137  0.25093  1.0000
  C   C7        1.0  0.92605  0.06617  0.75059  1.0000
  C   C8        1.0  0.92173  0.93228  0.24542  1.0000
  C   C9        1.0  0.49476  0.56616  0.77874  1.0000
  C   C10       1.0  0.49402  0.43198  0.28096  1.0000
  C   C11       1.0  0.99281  0.06537  0.77950  1.0000
  C   C12       1.0  0.98864  0.93350  0.27515  1.0000
  C   C13       1.0  0.52230  0.56722  0.72429  1.0000
  C   C14       1.0  0.52154  0.43068  0.22659  1.0000
  C   C15       1.0  0.01985  0.06755  0.72474  1.0000
  C   C16       1.0  0.01627  0.93199  0.22091  1.0000
  C   C17       1.0  0.48307  0.56757  0.63977  1.0000
  C   C18       1.0  0.48222  0.43123  0.14212  1.0000
  C   C19       1.0  0.98011  0.06849  0.64041  1.0000
  C   C20       1.0  0.97720  0.93179  0.13643  1.0000
  C   C21       1.0  0.41616  0.56662  0.60995  1.0000
  C   C22       1.0  0.41553  0.43368  0.11221  1.0000
  C   C23       1.0  0.91331  0.06666  0.61106  1.0000
  C   C24       1.0  0.91039  0.93336  0.10662  1.0000
  C   C25       1.0  0.38855  0.56789  0.66428  1.0000
  C   C26       1.0  0.38789  0.43237  0.16649  1.0000
  C   C27       1.0  0.88642  0.06662  0.66628  1.0000
  C   C28       1.0  0.88269  0.93238  0.16085  1.0000
  C   C29       1.0  0.11509  0.56617  0.54563  1.0000
  C   C30       1.0  0.11509  0.43539  0.04979  1.0000
  C   C31       1.0  0.61431  0.06356  0.55234  1.0000
  C   C32       1.0  0.60978  0.93326  0.04302  1.0000
  C   C33       1.0  0.82664  0.53438  0.51061  1.0000
  C   C34       1.0  0.82687  0.46639  0.01169  1.0000
  C   C35       1.0  0.32418  0.03467  0.51049  1.0000
  C   C36       1.0  0.32174  0.96510  0.00668  1.0000
  C   C37       1.0  0.72785  0.59920  0.04005  1.0000
  C   C38       1.0  0.73133  0.40040  0.54404  1.0000
  C   C39       1.0  0.23125  0.09905  0.04768  1.0000
  C   C40       1.0  0.22916  0.90147  0.54688  1.0000
  C   C41       1.0  0.08454  0.53733  0.87766  1.0000
  C   C42       1.0  0.08351  0.46282  0.38044  1.0000
  C   C43       1.0  0.58188  0.03801  0.87745  1.0000
  C   C44       1.0  0.57920  0.96146  0.37560  1.0000
  C   C45       1.0  0.25978  0.54243  0.27074  1.0000
  C   C46       1.0  0.25884  0.45843  0.77367  1.0000
  C   C47       1.0  0.75342  0.04243  0.27235  1.0000
  C   C48       1.0  0.75667  0.95672  0.76743  1.0000
  C   C49       1.0  0.59493  0.86705  0.11232  1.0000
  C   C50       1.0  0.60302  0.13155  0.61725  1.0000
  C   C51       1.0  0.09885  0.36885  0.11495  1.0000
  C   C52       1.0  0.10381  0.63227  0.62006  1.0000
  C   C53       1.0  0.66370  0.77326  0.95479  1.0000
  C   C54       1.0  0.66853  0.22593  0.45763  1.0000
  C   C55       1.0  0.16962  0.27386  0.96223  1.0000
  C   C56       1.0  0.16968  0.72668  0.46124  1.0000
  C   C57       1.0  0.67665  0.74490  0.98988  1.0000
  C   C58       1.0  0.67971  0.25456  0.49205  1.0000
  C   C59       1.0  0.18065  0.24561  0.99829  1.0000
  C   C60       1.0  0.18272  0.75500  0.49739  1.0000
  C   C61       1.0  0.69441  0.72204  0.95211  1.0000
  C   C62       1.0  0.69861  0.27741  0.45525  1.0000
  C   C63       1.0  0.19884  0.22214  0.96279  1.0000
  C   C64       1.0  0.19944  0.77826  0.45967  1.0000
  C   C65       1.0  0.69786  0.72747  0.87875  1.0000
  C   C66       1.0  0.70461  0.27184  0.38355  1.0000
  C   C67       1.0  0.20499  0.22690  0.89085  1.0000
  C   C68       1.0  0.20264  0.77313  0.38605  1.0000
  C   C69       1.0  0.68607  0.75605  0.84436  1.0000
  C   C70       1.0  0.69421  0.24317  0.34976  1.0000
  C   C71       1.0  0.19633  0.25536  0.85648  1.0000
  C   C72       1.0  0.19131  0.74464  0.35101  1.0000
  C   C73       1.0  0.66960  0.77902  0.88320  1.0000
  C   C74       1.0  0.67696  0.22015  0.38767  1.0000
  C   C75       1.0  0.17905  0.27892  0.89274  1.0000
  C   C76       1.0  0.17535  0.72132  0.38926  1.0000
  C   C77       1.0  0.64809  0.54145  0.11835  1.0000
  C   C78       1.0  0.64866  0.45756  0.61949  1.0000
  C   C79       1.0  0.14880  0.04055  0.11727  1.0000
  C   C80       1.0  0.14439  0.95853  0.61383  1.0000
  C   C81       1.0  0.66258  0.90382  0.82513  1.0000
  C   C82       1.0  0.66744  0.09528  0.33023  1.0000
  C   C83       1.0  0.17113  0.40351  0.83138  1.0000
  C   C84       1.0  0.16777  0.59673  0.32836  1.0000
  C   C85       1.0  0.74037  0.63243  0.69984  1.0000
  C   C86       1.0  0.74010  0.36904  0.20506  1.0000
  C   C87       1.0  0.23542  0.13039  0.70627  1.0000
  C   C88       1.0  0.23622  0.86932  0.20437  1.0000
  N   N1        1.0  0.11904  0.41820  0.79361  1.0000
  N   N2        1.0  0.11544  0.58167  0.29478  1.0000
  N   N3        1.0  0.61033  0.91868  0.79152  1.0000
  N   N4        1.0  0.61526  0.08044  0.29214  1.0000
  N   N5        1.0  0.24717  0.56228  0.21553  1.0000
  N   N6        1.0  0.24443  0.43830  0.71843  1.0000
  N   N7        1.0  0.74127  0.06215  0.21685  1.0000
  N   N8        1.0  0.74280  0.93647  0.71267  1.0000
  N   N9        1.0  0.08936  0.54546  0.56955  1.0000
  N   N10       1.0  0.08964  0.45698  0.07086  1.0000
  N   N11       1.0  0.58739  0.04170  0.57026  1.0000
  N   N12       1.0  0.58374  0.95460  0.06397  1.0000
  N   N13       1.0  0.82207  0.54491  0.82315  1.0000
  N   N14       1.0  0.82088  0.45323  0.32247  1.0000
  N   N15       1.0  0.31889  0.04623  0.81910  1.0000
  N   N16       1.0  0.31621  0.95365  0.31893  1.0000
  N   N17       1.0  0.66094  0.56101  0.17477  1.0000
  N   N18       1.0  0.66096  0.43829  0.67608  1.0000
  N   N19       1.0  0.16089  0.06008  0.17351  1.0000
  N   N20       1.0  0.15744  0.93882  0.66953  1.0000
  N   N21       1.0  0.78569  0.41391  0.57663  1.0000
  N   N22       1.0  0.78200  0.58624  0.07960  1.0000
  N   N23       1.0  0.28317  0.91512  0.58295  1.0000
  N   N24       1.0  0.28538  0.08559  0.07953  1.0000
  N   N25       1.0  0.14551  0.62055  0.68598  1.0000
  N   N26       1.0  0.13964  0.38054  0.18201  1.0000
  N   N27       1.0  0.64360  0.12077  0.68544  1.0000
  N   N28       1.0  0.63629  0.87928  0.17803  1.0000
  N   N29       1.0  0.79387  0.61871  0.72417  1.0000
  N   N30       1.0  0.79545  0.38009  0.22154  1.0000
  N   N31       1.0  0.29045  0.11911  0.72334  1.0000
  N   N32       1.0  0.29081  0.88156  0.22279  1.0000
  C  Sn1       1.0  0.95147  0.51908  0.80208  1.0000
  C   C89       1.0  0.00282  0.53828  0.84269  1.0000
  C  Sn2       1.0  0.99901  0.56050  0.89303  1.0000
  C  Sn3       1.0  0.94272  0.56359  0.90303  1.0000
  C   C90       1.0  0.89142  0.54440  0.86244  1.0000
  C  Sn4       1.0  0.89518  0.52217  0.81207  1.0000
  O  Te1       1.0  0.95633  0.49703  0.75206  1.0000
  O  Te2       1.0  0.05096  0.57944  0.93298  1.0000
  O  Te3       1.0  0.93789  0.58568  0.95310  1.0000
  O  Te4       1.0  0.84327  0.50325  0.77215  1.0000
  Mg  Mg1       1.0  0.02140  0.60603  0.99461  1.0000
  Mg  Mg2       1.0  0.87280  0.47664  0.71054  1.0000
  C  Sn5       1.0  0.94889  0.43299  0.40595  1.0000
  C   C91       1.0  0.89899  0.45315  0.37194  1.0000
  C  Sn6       1.0  0.90515  0.47804  0.33124  1.0000
  C  Sn7       1.0  0.96236  0.48289  0.32435  1.0000
  C   C92       1.0  0.01222  0.46274  0.35833  1.0000
  C  Sn8       1.0  0.00610  0.43784  0.39905  1.0000
  O  Te5       1.0  0.94168  0.40826  0.44636  1.0000
  O  Te6       1.0  0.85461  0.49788  0.29776  1.0000
  O  Te7       1.0  0.96953  0.50765  0.28389  1.0000
  O  Te8       1.0  0.05660  0.41800  0.43251  1.0000
  Mg  Mg3       1.0  0.88726  0.52830  0.24847  1.0000
  Mg  Mg4       1.0  0.02399  0.38757  0.48178  1.0000
  C  Sn9       1.0  0.42481  0.01336  0.85148  1.0000
  C   C93       1.0  0.39440  0.03863  0.86040  1.0000
  C  Sn10      1.0  0.42250  0.06644  0.86773  1.0000
  C  Sn11      1.0  0.48222  0.06907  0.86606  1.0000
  C   C94       1.0  0.51259  0.04382  0.85712  1.0000
  C  Sn12      1.0  0.48453  0.01599  0.84980  1.0000
  O  Te9       1.0  0.40380  0.98578  0.84425  1.0000
  O  Te10      1.0  0.39120  0.09137  0.87663  1.0000
  O  Te11      1.0  0.51119  0.09668  0.87330  1.0000
  O  Te12      1.0  0.52376  0.99107  0.84090  1.0000
  Mg  Mg5       1.0  0.44986  0.12412  0.88416  1.0000
  Mg  Mg6       1.0  0.46512  0.95832  0.83332  1.0000
  C  Sn13      1.0  0.47208  0.92867  0.36875  1.0000
  C   C95       1.0  0.50090  0.95293  0.35131  1.0000
  C  Sn14      1.0  0.47061  0.98032  0.33335  1.0000
  C  Sn15      1.0  0.41028  0.98354  0.33285  1.0000
  C   C96       1.0  0.38149  0.95930  0.35030  1.0000
  C  Sn16      1.0  0.41175  0.93190  0.36826  1.0000
  O  Te13      1.0  0.50323  0.90150  0.38655  1.0000
  O  Te14      1.0  0.49239  0.00424  0.31608  1.0000
  O  Te15      1.0  0.37117  0.01075  0.31504  1.0000
  O  Te16      1.0  0.38204  0.90799  0.38553  1.0000
  Mg  Mg7       1.0  0.43097  0.03677  0.29550  1.0000
  Mg  Mg8       1.0  0.44343  0.87545  0.40616  1.0000
  C  Sn17      1.0  0.26805  0.59711  0.59384  1.0000
  C   C97       1.0  0.31198  0.57601  0.64160  1.0000
  C  Sn18      1.0  0.29137  0.54806  0.65210  1.0000
  C  Sn19      1.0  0.22548  0.54103  0.61402  1.0000
  C   C98       1.0  0.18159  0.56211  0.56628  1.0000
  C  Sn20      1.0  0.20216  0.59008  0.55576  1.0000
  O  Te17      1.0  0.28973  0.62491  0.58418  1.0000
  O  Te18      1.0  0.33619  0.52734  0.70016  1.0000
  O  Te19      1.0  0.20382  0.51320  0.62372  1.0000
  O  Te20      1.0  0.15738  0.61079  0.50772  1.0000
  Mg  Mg9       1.0  0.28324  0.49246  0.69496  1.0000
  Mg  Mg10      1.0  0.21028  0.64566  0.51284  1.0000
  C  Sn21      1.0  0.23525  0.46325  0.11689  1.0000
  C   C99       1.0  0.19044  0.44198  0.07047  1.0000
  C  Sn22      1.0  0.20993  0.41367  0.06137  1.0000
  C  Sn23      1.0  0.27556  0.40646  0.09951  1.0000
  C   C100      1.0  0.32032  0.42773  0.14591  1.0000
  C  Sn24      1.0  0.30088  0.45605  0.15503  1.0000
  O  Te21      1.0  0.21469  0.49142  0.12517  1.0000
  O  Te22      1.0  0.16425  0.39277  0.01464  1.0000
  O  Te23      1.0  0.29609  0.37827  0.09120  1.0000
  O  Te24      1.0  0.34652  0.47693  0.20174  1.0000
  Mg  Mg11      1.0  0.21580  0.35742  0.02146  1.0000
  Mg  Mg12      1.0  0.29502  0.51229  0.19500  1.0000
  C  Sn25      1.0  0.76598  0.09519  0.60087  1.0000
  C   C101      1.0  0.81050  0.07382  0.64568  1.0000
  C  Sn26      1.0  0.79054  0.04545  0.65398  1.0000
  C  Sn27      1.0  0.72470  0.03829  0.61668  1.0000
  C   C102      1.0  0.68023  0.05965  0.57190  1.0000
  C  Sn28      1.0  0.70015  0.08803  0.56357  1.0000
  O  Te25      1.0  0.78701  0.12341  0.59336  1.0000
  O  Te26      1.0  0.83593  0.02445  0.69910  1.0000
  O  Te27      1.0  0.70369  0.01004  0.62423  1.0000
  O  Te28      1.0  0.65479  0.10902  0.51847  1.0000
  Mg  Mg13      1.0  0.79171  0.98905  0.69177  1.0000
  Mg  Mg14      1.0  0.70692  0.14442  0.52573  1.0000
  C  Sn29      1.0  0.72924  0.96185  0.11241  1.0000
  C   C103      1.0  0.68510  0.94063  0.06430  1.0000
  C  Sn30      1.0  0.70540  0.91266  0.05391  1.0000
  C  Sn31      1.0  0.77118  0.90574  0.09246  1.0000
  C   C104      1.0  0.81527  0.92695  0.14055  1.0000
  C  Sn32      1.0  0.79501  0.95493  0.15096  1.0000
  O  Te29      1.0  0.70787  0.98967  0.12196  1.0000
  O  Te30      1.0  0.66039  0.89181  0.00549  1.0000
  O  Te31      1.0  0.79251  0.87790  0.08287  1.0000
  O  Te32      1.0  0.83998  0.97577  0.19936  1.0000
  Mg  Mg15      1.0  0.71292  0.85697  0.01102  1.0000
  Mg  Mg16      1.0  0.77954  0.01061  0.19390  1.0000
  C  Sn33      1.0  0.74591  0.52328  0.29478  1.0000
  C   C105      1.0  0.70110  0.54571  0.26085  1.0000
  C  Sn34      1.0  0.69997  0.56965  0.30811  1.0000
  C  Sn35      1.0  0.74459  0.57122  0.39100  1.0000
  C   C106      1.0  0.78937  0.54880  0.42488  1.0000
  C  Sn36      1.0  0.79052  0.52485  0.37766  1.0000
  O  Te33      1.0  0.74616  0.49954  0.24640  1.0000
  O  Te34      1.0  0.65471  0.59181  0.27285  1.0000
  O  Te35      1.0  0.74430  0.59498  0.43938  1.0000
  O  Te36      1.0  0.83575  0.50271  0.41288  1.0000
  Mg  Mg17      1.0  0.67347  0.61969  0.36365  1.0000
  Mg  Mg18      1.0  0.81707  0.47483  0.32213  1.0000
  C  Sn37      1.0  0.77534  0.46349  0.79578  1.0000
  C   C107      1.0  0.72547  0.44304  0.76221  1.0000
  C  Sn38      1.0  0.69849  0.43081  0.80944  1.0000
  C  Sn39      1.0  0.72181  0.43920  0.89193  1.0000
  C   C108      1.0  0.77164  0.45965  0.92544  1.0000
  C  Sn40      1.0  0.79866  0.47189  0.87826  1.0000
  O  Te37      1.0  0.80159  0.47544  0.74743  1.0000
  O  Te38      1.0  0.64870  0.41039  0.77455  1.0000
  O  Te39      1.0  0.69552  0.42723  0.94027  1.0000
  O  Te40      1.0  0.84841  0.49230  0.91311  1.0000
  Mg  Mg19      1.0  0.62853  0.40028  0.86513  1.0000
  Mg  Mg20      1.0  0.86859  0.50243  0.82258  1.0000
  C  Sn41      1.0  0.24693  0.02295  0.29469  1.0000
  C   C109      1.0  0.20073  0.04474  0.25963  1.0000
  C  Sn42      1.0  0.19742  0.06852  0.30601  1.0000
  C  Sn43      1.0  0.24124  0.07058  0.38915  1.0000
  C   C110      1.0  0.28742  0.04880  0.42416  1.0000
  C  Sn44      1.0  0.29075  0.02501  0.37783  1.0000
  O  Te41      1.0  0.25732  0.99937  0.24717  1.0000
  O  Te42      1.0  0.15080  0.09003  0.26962  1.0000
  O  Te43      1.0  0.23878  0.09418  0.43666  1.0000
  O  Te44      1.0  0.33735  0.00352  0.41417  1.0000
  Mg  Mg21      1.0  0.16672  0.11794  0.35954  1.0000
  Mg  Mg22      1.0  0.32946  0.97560  0.32431  1.0000
  C  Sn45      1.0  0.26959  0.96508  0.79135  1.0000
  C   C111      1.0  0.22177  0.94374  0.75617  1.0000
  C  Sn46      1.0  0.19571  0.92976  0.80220  1.0000
  C  Sn47      1.0  0.21789  0.93728  0.88512  1.0000
  C   C112      1.0  0.26567  0.95861  0.92026  1.0000
  C  Sn48      1.0  0.29176  0.97260  0.87427  1.0000
  O  Te45      1.0  0.29494  0.97877  0.74418  1.0000
  O  Te46      1.0  0.14797  0.90850  0.76570  1.0000
  O  Te47      1.0  0.19249  0.92357  0.93229  1.0000
  O  Te48      1.0  0.33947  0.99386  0.91073  1.0000
  Mg  Mg23      1.0  0.12834  0.89602  0.85512  1.0000
  Mg  Mg24      1.0  0.35115  0.00636  0.82136  1.0000
  C  Sn49      1.0  0.95802  0.51494  0.57813  1.0000
  C   C113      1.0  0.90706  0.53444  0.54201  1.0000
  C  Sn50      1.0  0.91190  0.55881  0.49867  1.0000
  C  Sn51      1.0  0.96885  0.56381  0.49122  1.0000
  C   C114      1.0  0.01976  0.54432  0.52732  1.0000
  C  Sn52      1.0  0.01496  0.51993  0.57069  1.0000
  O  Te49      1.0  0.95212  0.49072  0.62117  1.0000
  O  Te50      1.0  0.86032  0.57800  0.46312  1.0000
  O  Te51      1.0  0.97471  0.58806  0.44814  1.0000
  O  Te52      1.0  0.06649  0.50075  0.60621  1.0000
  Mg  Mg25      1.0  0.89136  0.60789  0.41057  1.0000
  Mg  Mg26      1.0  0.03550  0.47085  0.65873  1.0000
  C  Sn53      1.0  0.95070  0.49315  0.04016  1.0000
  C   C115      1.0  0.90002  0.47320  0.00478  1.0000
  C  Sn54      1.0  0.26052  0.44501  0.99522  1.0000
  C  Sn55      1.0  0.97483  0.43358  0.02161  1.0000
  C   C116      1.0  0.02547  0.45352  0.05697  1.0000
  C  Sn56      1.0  0.01410  0.48320  0.06655  1.0000
  O  Te53      1.0  0.93818  0.52272  0.04912  1.0000
  O  Te54      1.0  0.20907  0.42548  0.95966  1.0000
  O  Te55      1.0  0.98732  0.40399  0.01261  1.0000
  O  Te56      1.0  0.06550  0.50272  0.10210  1.0000
  Mg  Mg27      1.0  0.25046  0.38735  0.96067  1.0000
  Mg  Mg28      1.0  0.02417  0.54086  0.10115  1.0000
  C  Sn57      1.0  0.45414  0.01355  0.57838  1.0000
  C   C117      1.0  0.40446  0.03368  0.54198  1.0000
  C  Sn58      1.0  0.41084  0.05758  0.49824  1.0000
  C  Sn59      1.0  0.46804  0.06143  0.49068  1.0000
  C   C118      1.0  0.51767  0.04131  0.52706  1.0000
  C  Sn60      1.0  0.51134  0.01741  0.57082  1.0000
  O  Te57      1.0  0.45468  0.98982  0.62182  1.0000
  O  Te58      1.0  0.36052  0.07741  0.46240  1.0000
  O  Te59      1.0  0.47543  0.08519  0.44720  1.0000
  O  Te60      1.0  0.56957  0.99758  0.60663  1.0000
  Mg  Mg29      1.0  0.39341  0.10625  0.40936  1.0000
  Mg  Mg30      1.0  0.53673  0.96872  0.65965  1.0000
  C  Sn61      1.0  0.07819  0.92988  0.01647  1.0000
  C   C119      1.0  0.04996  0.95518  0.02945  1.0000
  C  Sn62      1.0  0.08061  0.98256  0.04171  1.0000
  C  Sn63      1.0  0.14072  0.98471  0.04092  1.0000
  C   C120      1.0  0.16892  0.95942  0.02792  1.0000
  C  Sn64      1.0  0.13830  0.93202  0.01567  1.0000
  O  Te61      1.0  0.04669  0.90273  0.00435  1.0000
  O  Te62      1.0  0.04348  0.00754  0.05460  1.0000
  O  Te63      1.0  0.16425  0.01188  0.05305  1.0000
  O  Te64      1.0  0.16743  0.90705  0.00278  1.0000
  Mg  Mg31      1.0  0.10521  0.03958  0.06812  1.0000
  Mg  Mg32      1.0  0.45481  0.87650  0.98921  1.0000
  C  Sn65      1.0  0.53768  0.59879  0.55162  1.0000
  C   C121      1.0  0.50461  0.57544  0.56546  1.0000
  C  Sn66      1.0  0.50849  0.54692  0.53896  1.0000
  C  Sn67      1.0  0.54624  0.54163  0.49781  1.0000
  C   C122      1.0  0.57929  0.56498  0.48401  1.0000
  C  Sn68      1.0  0.57543  0.59350  0.51047  1.0000
  O  Te65      1.0  0.53311  0.62712  0.57865  1.0000
  O  Te66      1.0  0.47499  0.52393  0.55347  1.0000
  O  Te67      1.0  0.55078  0.51328  0.47078  1.0000
  O  Te68      1.0  0.60891  0.61648  0.49599  1.0000
  Mg  Mg33      1.0  0.49634  0.48920  0.50497  1.0000
  Mg  Mg34      1.0  0.58762  0.65122  0.54450  1.0000
  C  Sn69      1.0  0.56631  0.40328  0.09120  1.0000
  C   C123      1.0  0.53333  0.42741  0.10097  1.0000
  C  Sn70      1.0  0.51340  0.45023  0.04428  1.0000
  C  Sn71      1.0  0.87576  0.45039  0.97637  1.0000
  C   C124      1.0  0.90871  0.42627  0.96662  1.0000
  C  Sn72      1.0  0.57958  0.40195  0.02329  1.0000
  O  Te69      1.0  0.58577  0.38072  0.14862  1.0000
  O  Te70      1.0  0.48051  0.47413  0.05536  1.0000
  O  Te71      1.0  0.85626  0.47298  0.91893  1.0000
  O  Te72      1.0  0.61244  0.37806  0.01223  1.0000
  Mg  Mg35      1.0  0.81292  0.50091  0.96055  1.0000
  Mg  Mg36      1.0  0.62911  0.35275  0.10697  1.0000
  C  Sn73      1.0  0.02797  0.04380  0.53531  1.0000
  C   C125      1.0  0.02382  0.06469  0.58867  1.0000
  C  Sn74      1.0  0.03673  0.09446  0.58218  1.0000
  C  Sn75      1.0  0.05411  0.10354  0.52104  1.0000
  C   C126      1.0  0.05824  0.08265  0.46772  1.0000
  C  Sn76      1.0  0.04535  0.05288  0.47418  1.0000
  O  Te73      1.0  0.01485  0.01416  0.54292  1.0000
  O  Te74      1.0  0.03228  0.11494  0.63624  1.0000
  O  Te75      1.0  0.06723  0.13321  0.51348  1.0000
  O  Te76      1.0  0.04977  0.03241  0.42015  1.0000
  Mg  Mg37      1.0  0.05471  0.15279  0.60143  1.0000
  Mg  Mg38      1.0  0.03530  0.99456  0.45488  1.0000
  C  Sn77      1.0  0.69240  0.95619  0.00372  1.0000
  C   C127      1.0  0.07396  0.93378  0.99176  1.0000
  C  Sn78      1.0  0.71952  0.90420  0.01940  1.0000
  C  Sn79      1.0  0.68086  0.89988  0.05981  1.0000
  C   C128      1.0  0.64840  0.92377  0.07175  1.0000
  C  Sn80      1.0  0.65374  0.95188  0.04413  1.0000
  O  Te77      1.0  0.04753  0.98557  0.97557  1.0000
  O  Te78      1.0  0.75246  0.88066  0.00676  1.0000
  O  Te79      1.0  0.67484  0.87196  0.08797  1.0000
  O  Te80      1.0  0.62082  0.97541  0.05675  1.0000
  Mg  Mg39      1.0  0.72902  0.84683  0.05623  1.0000
  Mg  Mg40      1.0  0.63623  0.00924  0.00727  1.0000
  C  Sn81      1.0  0.64953  0.78650  0.64907  1.0000
  C   C129      1.0  0.70295  0.78128  0.63595  1.0000
  C  Sn82      1.0  0.75220  0.76339  0.68891  1.0000
  C  Sn83      1.0  0.74795  0.75042  0.75637  1.0000
  C   C130      1.0  0.69455  0.75564  0.76946  1.0000
  C  Sn84      1.0  0.64528  0.77354  0.71653  1.0000
  O  Te81      1.0  0.60086  0.80447  0.59534  1.0000
  O  Te82      1.0  0.80514  0.75850  0.67455  1.0000
  O  Te83      1.0  0.79668  0.73245  0.81011  1.0000
  O  Te84      1.0  0.59236  0.77842  0.73085  1.0000
  Mg  Mg41      1.0  0.85910  0.73237  0.76489  1.0000
  Mg  Mg42      1.0  0.53836  0.80454  0.64053  1.0000
  C  Sn85      1.0  0.77212  0.22602  0.22602  1.0000
  C   C131      1.0  0.72377  0.21891  0.14947  1.0000
  C  Sn86      1.0  0.66002  0.22353  0.13164  1.0000
  C  Sn87      1.0  0.64426  0.23552  0.19156  1.0000
  C   C132      1.0  0.69259  0.24262  0.26806  1.0000
  C  Sn88      1.0  0.75636  0.23801  0.28594  1.0000
  O  Te85      1.0  0.83553  0.22122  0.24250  1.0000
  O  Te86      1.0  0.61251  0.21625  0.05468  1.0000
  O  Te87      1.0  0.58079  0.24032  0.17502  1.0000
  O  Te88      1.0  0.80384  0.24529  0.36284  1.0000
  Mg  Mg43      1.0  0.53311  0.22688  0.06133  1.0000
  Mg  Mg44      1.0  0.88326  0.23468  0.35625  1.0000
  C  Sn89      1.0  0.26947  0.25376  0.72158  1.0000
  C   C133      1.0  0.22241  0.26261  0.64616  1.0000
  C  Sn90      1.0  0.16428  0.27338  0.63866  1.0000
  C  Sn91      1.0  0.15296  0.27536  0.70800  1.0000
  C   C134      1.0  0.20000  0.26651  0.78337  1.0000
  C  Sn92      1.0  0.25815  0.25573  0.79093  1.0000
  O  Te89      1.0  0.32722  0.24307  0.72767  1.0000
  O  Te90      1.0  0.11796  0.28209  0.56260  1.0000
  O  Te91      1.0  0.09514  0.28606  0.70185  1.0000
  O  Te92      1.0  0.30445  0.24703  0.86692  1.0000
  Mg  Mg45      1.0  0.04693  0.29520  0.58520  1.0000
  Mg  Mg46      1.0  0.37550  0.23393  0.84440  1.0000
  C  Sn93      1.0  0.13402  0.73408  0.13786  1.0000
  C   C135      1.0  0.18694  0.73660  0.12214  1.0000
  C  Sn94      1.0  0.24830  0.73803  0.18590  1.0000
  C  Sn95      1.0  0.25697  0.73690  0.26707  1.0000
  C   C136      1.0  0.20408  0.73439  0.28277  1.0000
  C  Sn96      1.0  0.14269  0.73296  0.21904  1.0000
  O  Te93      1.0  0.07312  0.73269  0.07318  1.0000
  O  Te94      1.0  0.30046  0.74054  0.16866  1.0000
  O  Te95      1.0  0.31794  0.73830  0.33177  1.0000
  O  Te96      1.0  0.09055  0.73044  0.23624  1.0000
  Mg  Mg47      1.0  0.37398  0.74165  0.27743  1.0000
  Mg  Mg48      1.0  0.01702  0.72931  0.12753  1.0000
  C  Sn97      1.0  0.68475  0.58954  0.84343  1.0000
  C   C137      1.0  0.72208  0.56841  0.82941  1.0000
  C  Sn98      1.0  0.69368  0.54674  0.76989  1.0000
  C  Sn99      1.0  0.62657  0.54617  0.72335  1.0000
  C   C138      1.0  0.58929  0.56729  0.73737  1.0000
  C  Sn100     1.0  0.61765  0.58897  0.79690  1.0000
  O  Te97      1.0  0.71416  0.61100  0.90325  1.0000
  O  Te98      1.0  0.73199  0.52585  0.75700  1.0000
  O  Te99      1.0  0.59718  0.52468  0.66350  1.0000
  O  Te100     1.0  0.57938  0.60985  0.80978  1.0000
  Mg  Mg49      1.0  0.66966  0.50101  0.66856  1.0000
  Mg  Mg50      1.0  0.64165  0.63471  0.89817  1.0000
  C  Sn101     1.0  0.67544  0.46009  0.27497  1.0000
  C   C139      1.0  0.71936  0.43870  0.32103  1.0000
  C  Sn102     1.0  0.69870  0.41051  0.32964  1.0000
  C  Sn103     1.0  0.63277  0.40356  0.29137  1.0000
  C   C140      1.0  0.58890  0.42494  0.24533  1.0000
  C  Sn104     1.0  0.60952  0.45313  0.23670  1.0000
  O  Te101     1.0  0.69717  0.48812  0.26718  1.0000
  O  Te102     1.0  0.74350  0.38950  0.37603  1.0000
  O  Te103     1.0  0.61107  0.37550  0.29920  1.0000
  O  Te104     1.0  0.56476  0.47414  0.19034  1.0000
  Mg  Mg51      1.0  0.69049  0.35440  0.36860  1.0000
  Mg  Mg52      1.0  0.61772  0.50924  0.19769  1.0000
  C  Sn105     1.0  0.16925  0.04813  0.73107  1.0000
  C   C141      1.0  0.21374  0.06839  0.78332  1.0000
  C  Sn106     1.0  0.19694  0.08794  0.82929  1.0000
  C  Sn107     1.0  0.13439  0.08721  0.82293  1.0000
  C   C142      1.0  0.08994  0.06696  0.77071  1.0000
  C  Sn108     1.0  0.10669  0.04740  0.72471  1.0000
  O  Te105     1.0  0.18708  0.02880  0.68570  1.0000
  O  Te106     1.0  0.24224  0.10800  0.88109  1.0000
  O  Te107     1.0  0.11658  0.10657  0.86835  1.0000
  O  Te108     1.0  0.06144  0.02735  0.67294  1.0000
  Mg  Mg53      1.0  0.19513  0.12985  0.93042  1.0000
  Mg  Mg54      1.0  0.10850  0.00548  0.62362  1.0000
  C  Sn109     1.0  0.14018  0.91083  0.32884  1.0000
  C   C143      1.0  0.09647  0.93174  0.27967  1.0000
  C  Sn110     1.0  0.11393  0.95219  0.23636  1.0000
  C  Sn111     1.0  0.17635  0.95174  0.24228  1.0000
  C   C144      1.0  0.22001  0.93083  0.29142  1.0000
  C  Sn112     1.0  0.20261  0.91037  0.33476  1.0000
  O  Te109     1.0  0.12170  0.89058  0.37159  1.0000
  O  Te110     1.0  0.06941  0.97289  0.18761  1.0000
  O  Te111     1.0  0.19481  0.97200  0.19948  1.0000
  O  Te112     1.0  0.24708  0.88968  0.38347  1.0000
  Mg  Mg55      1.0  0.11721  0.99589  0.14111  1.0000
  Mg  Mg56      1.0  0.19932  0.86666  0.42997  1.0000
  C  Sn113     1.0  0.60262  0.82983  0.78740  1.0000
  C   C145      1.0  0.65576  0.81189  0.82792  1.0000
  C  Sn114     1.0  0.71536  0.82447  0.87587  1.0000
  C  Sn115     1.0  0.72198  0.85562  0.88353  1.0000
  C   C146      1.0  0.66886  0.87355  0.84305  1.0000
  C  Sn116     1.0  0.60924  0.86099  0.79506  1.0000
  O  Te113     1.0  0.54351  0.81678  0.73979  1.0000
  O  Te114     1.0  0.76779  0.80608  0.91577  1.0000
  O  Te115     1.0  0.78116  0.86866  0.93119  1.0000
  O  Te116     1.0  0.55683  0.87936  0.75519  1.0000
  Mg  Mg57      1.0  0.83837  0.83432  0.97364  1.0000
  Mg  Mg58      1.0  0.48622  0.85114  0.69734  1.0000
  C  Sn117     1.0  0.60807  0.16730  0.31956  1.0000
  C   C147      1.0  0.66113  0.18469  0.36687  1.0000
  C  Sn118     1.0  0.72258  0.17375  0.39159  1.0000
  C  Sn119     1.0  0.73119  0.14483  0.36851  1.0000
  C   C148      1.0  0.67815  0.12746  0.32122  1.0000
  C  Sn120     1.0  0.61667  0.13838  0.29648  1.0000
  O  Te117     1.0  0.54707  0.17868  0.29552  1.0000
  O  Te118     1.0  0.77489  0.19155  0.43889  1.0000
  O  Te119     1.0  0.79225  0.13346  0.39259  1.0000
  O  Te120     1.0  0.56439  0.12060  0.24920  1.0000
  Mg  Mg59      1.0  0.84848  0.16617  0.45656  1.0000
  Mg  Mg60      1.0  0.49078  0.14596  0.23145  1.0000
  C  Sn121     1.0  0.11696  0.32851  0.78693  1.0000
  C   C149      1.0  0.16951  0.31139  0.83573  1.0000
  C  Sn122     1.0  0.22584  0.32486  0.89113  1.0000
  C  Sn123     1.0  0.22972  0.35610  0.89794  1.0000
  C   C150      1.0  0.17719  0.37320  0.84917  1.0000
  C  Sn124     1.0  0.12084  0.35974  0.79373  1.0000
  O  Te121     1.0  0.06113  0.31457  0.73196  1.0000
  O  Te122     1.0  0.27775  0.30728  0.93924  1.0000
  O  Te123     1.0  0.28562  0.37003  0.95296  1.0000
  O  Te124     1.0  0.06895  0.37730  0.74565  1.0000
  Mg  Mg61      1.0  0.99432  0.33509  0.00518  1.0000
  Mg  Mg62      1.0  0.00327  0.34803  0.67972  1.0000
  C  Sn125     1.0  0.10765  0.66738  0.33275  1.0000
  C   C151      1.0  0.16101  0.68569  0.37065  1.0000
  C  Sn126     1.0  0.22102  0.67599  0.38249  1.0000
  C  Sn127     1.0  0.22782  0.64739  0.35585  1.0000
  C   C152      1.0  0.17448  0.62910  0.31797  1.0000
  C  Sn128     1.0  0.11446  0.63878  0.30611  1.0000
  O  Te125     1.0  0.04813  0.67754  0.32153  1.0000
  O  Te126     1.0  0.27367  0.69469  0.42056  1.0000
  O  Te127     1.0  0.28741  0.63724  0.36710  1.0000
  O  Te128     1.0  0.06183  0.62010  0.26806  1.0000
  Mg  Mg63      1.0  0.34480  0.67086  0.42202  1.0000
  Mg  Mg64      1.0  0.99068  0.64391  0.26653  1.0000
  C  Sn129     1.0  0.78139  0.68952  0.84682  1.0000
  C   C153      1.0  0.72499  0.70485  0.82821  1.0000
  C  Sn130     1.0  0.66680  0.69371  0.77041  1.0000
  C  Sn131     1.0  0.66492  0.66667  0.73041  1.0000
  C   C154      1.0  0.72129  0.65135  0.74903  1.0000
  C  Sn132     1.0  0.77952  0.66247  0.80682  1.0000
  O  Te129     1.0  0.83903  0.70107  0.90481  1.0000
  O  Te130     1.0  0.61104  0.70945  0.75281  1.0000
  O  Te131     1.0  0.60722  0.65513  0.67238  1.0000
  O  Te132     1.0  0.83524  0.64675  0.82444  1.0000
  Mg  Mg65      1.0  0.54417  0.68467  0.66931  1.0000
  Mg  Mg66      1.0  0.90213  0.67150  0.90795  1.0000
  C  Sn133     1.0  0.66113  0.30979  0.24798  1.0000
  C   C155      1.0  0.70808  0.29450  0.31258  1.0000
  C  Sn134     1.0  0.76954  0.30619  0.35346  1.0000
  C  Sn135     1.0  0.78439  0.33375  0.32930  1.0000
  C   C156      1.0  0.73745  0.34903  0.26474  1.0000
  C  Sn136     1.0  0.67597  0.33735  0.22382  1.0000
  O  Te133     1.0  0.60001  0.29769  0.20798  1.0000
  O  Te134     1.0  0.81569  0.29049  0.41785  1.0000
  O  Te135     1.0  0.84557  0.34585  0.36936  1.0000
  O  Te136     1.0  0.62985  0.35304  0.15948  1.0000
  Mg  Mg67      1.0  0.89208  0.31612  0.45342  1.0000
  Mg  Mg68      1.0  0.55344  0.32743  0.12389  1.0000
  C  Sn137     1.0  0.28415  0.16617  0.84780  1.0000
  C   C157      1.0  0.23623  0.15128  0.78254  1.0000
  C  Sn138     1.0  0.17522  0.16324  0.74313  1.0000
  C  Sn139     1.0  0.16182  0.19066  0.76946  1.0000
  C   C158      1.0  0.20972  0.20554  0.83467  1.0000
  C  Sn140     1.0  0.27075  0.19359  0.87413  1.0000
  O  Te137     1.0  0.34481  0.15380  0.88630  1.0000
  O  Te138     1.0  0.12809  0.14794  0.67805  1.0000
  O  Te139     1.0  0.10110  0.20302  0.73090  1.0000
  O  Te140     1.0  0.31787  0.20888  0.93916  1.0000
  Mg  Mg69      1.0  0.05285  0.17382  0.64512  1.0000
  Mg  Mg70      1.0  0.39313  0.18303  0.97210  1.0000
  C  Sn141     1.0  0.28725  0.82341  0.31859  1.0000
  C   C159      1.0  0.24033  0.83793  0.25217  1.0000
  C  Sn142     1.0  0.17608  0.83445  0.23372  1.0000
  C  Sn143     1.0  0.15836  0.81608  0.28271  1.0000
  C   C160      1.0  0.20526  0.80158  0.34909  1.0000
  C  Sn144     1.0  0.26953  0.80504  0.36758  1.0000
  O  Te141     1.0  0.35119  0.82722  0.33591  1.0000
  O  Te142     1.0  0.13003  0.84919  0.16699  1.0000
  O  Te143     1.0  0.09436  0.81229  0.26534  1.0000
  O  Te144     1.0  0.31556  0.79032  0.43427  1.0000
  Mg  Mg71      1.0  0.04918  0.83700  0.16805  1.0000
  Mg  Mg72      1.0  0.39642  0.80250  0.43329  1.0000
  C  Sn145     1.0  0.69157  0.81143  0.08987  1.0000
  C   C161      1.0  0.65172  0.79521  0.02123  1.0000
  C  Sn146     1.0  0.93963  0.80675  0.97074  1.0000
  C  Sn147     1.0  0.91783  0.83360  0.98921  1.0000
  C   C162      1.0  0.60859  0.84832  0.05780  1.0000
  C  Sn148     1.0  0.66978  0.83827  0.10834  1.0000
  O  Te145     1.0  0.75255  0.80095  0.13948  1.0000
  O  Te146     1.0  0.90065  0.79015  0.90247  1.0000
  O  Te147     1.0  0.85680  0.84407  0.93952  1.0000
  O  Te148     1.0  0.70875  0.85486  0.17656  1.0000
  Mg  Mg73      1.0  0.82146  0.81361  0.85345  1.0000
  Mg  Mg74      1.0  0.78795  0.83143  0.22559  1.0000
  C  Sn149     1.0  0.57702  0.18964  0.47785  1.0000
  C   C163      1.0  0.63567  0.20398  0.50273  1.0000
  C  Sn150     1.0  0.69079  0.19199  0.56403  1.0000
  C  Sn151     1.0  0.68721  0.16509  0.60121  1.0000
  C   C164      1.0  0.62859  0.15077  0.57632  1.0000
  C  Sn152     1.0  0.57345  0.16275  0.51503  1.0000
  O  Te149     1.0  0.52254  0.20203  0.41645  1.0000
  O  Te150     1.0  0.74888  0.20673  0.58788  1.0000
  O  Te151     1.0  0.74176  0.15271  0.66265  1.0000
  O  Te152     1.0  0.51539  0.14802  0.49117  1.0000
  Mg  Mg75      1.0  0.80981  0.18105  0.67410  1.0000
  Mg  Mg76      1.0  0.45443  0.17367  0.40493  1.0000
  C  Sn153     1.0  0.08519  0.32025  0.95662  1.0000
  C   C165      1.0  0.14465  0.30685  0.98295  1.0000
  C  Sn154     1.0  0.84240  0.30950  0.06235  1.0000
  C  Sn155     1.0  0.82953  0.32737  0.11659  1.0000
  C   C166      1.0  0.77009  0.34075  0.09027  1.0000
  C  Sn156     1.0  0.72323  0.33664  0.01087  1.0000
  O  Te153     1.0  0.03908  0.31582  0.87698  1.0000
  O  Te154     1.0  0.90150  0.29588  0.08726  1.0000
  O  Te155     1.0  0.87570  0.33179  0.19629  1.0000
  O  Te156     1.0  0.01325  0.35172  0.98595  1.0000
  Mg  Mg77      1.0  0.94885  0.30857  0.20170  1.0000
  Mg  Mg78      1.0  0.96585  0.33903  0.87155  1.0000
  C  Sn157     1.0  0.19006  0.67540  0.61767  1.0000
  C   C167      1.0  0.13011  0.66280  0.59595  1.0000
  C  Sn158     1.0  0.07996  0.66816  0.51970  1.0000
  C  Sn159     1.0  0.08994  0.68647  0.46397  1.0000
  C   C168      1.0  0.14986  0.69906  0.48569  1.0000
  C  Sn160     1.0  0.20004  0.69371  0.56194  1.0000
  O  Te157     1.0  0.23951  0.66974  0.69422  1.0000
  O  Te158     1.0  0.02044  0.65533  0.49938  1.0000
  O  Te159     1.0  0.04042  0.69213  0.38738  1.0000
  O  Te160     1.0  0.25953  0.70653  0.58226  1.0000
  Mg  Mg79      1.0  0.96802  0.66962  0.38785  1.0000
  Mg  Mg80      1.0  0.31199  0.69224  0.69375  1.0000
  C  Sn161     1.0  0.38288  0.54061  0.85427  1.0000
  C   C169      1.0  0.38404  0.56183  0.79994  1.0000
  C  Sn162     1.0  0.36784  0.59110  0.80582  1.0000
  C  Sn163     1.0  0.35015  0.59933  0.86731  1.0000
  C   C170      1.0  0.34901  0.57812  0.92161  1.0000
  C  Sn164     1.0  0.36519  0.54885  0.91577  1.0000
  O  Te161     1.0  0.39926  0.51149  0.84727  1.0000
  O  Te162     1.0  0.36933  0.61192  0.75078  1.0000
  O  Te163     1.0  0.33376  0.62849  0.87427  1.0000
  O  Te164     1.0  0.36372  0.52804  0.97076  1.0000
  Mg  Mg81      1.0  0.34303  0.64882  0.78506  1.0000
  Mg  Mg82      1.0  0.39004  0.49114  0.93657  1.0000
  C  Sn165     1.0  0.34013  0.40676  0.30426  1.0000
  C   C171      1.0  0.37646  0.42940  0.29376  1.0000
  C  Sn166     1.0  0.40162  0.45198  0.35126  1.0000
  C  Sn167     1.0  0.39026  0.45192  0.42072  1.0000
  C   C172      1.0  0.35395  0.42929  0.43119  1.0000
  C  Sn168     1.0  0.32876  0.40670  0.37372  1.0000
  O  Te165     1.0  0.31545  0.38441  0.24601  1.0000
  O  Te166     1.0  0.43778  0.47438  0.33943  1.0000
  O  Te167     1.0  0.41497  0.47430  0.47898  1.0000
  O  Te168     1.0  0.29263  0.38430  0.38553  1.0000
  Mg  Mg83      1.0  0.46125  0.49997  0.43584  1.0000
  Mg  Mg84      1.0  0.26917  0.35870  0.28918  1.0000
  C  Sn169     1.0  0.88318  0.03735  0.85636  1.0000
  C   C173      1.0  0.88292  0.05923  0.80281  1.0000
  C  Sn170     1.0  0.86774  0.08836  0.81210  1.0000
  C  Sn171     1.0  0.85253  0.09577  0.87628  1.0000
  C   C174      1.0  0.85281  0.07390  0.92979  1.0000
  C  Sn172     1.0  0.86798  0.04476  0.92054  1.0000
  O  Te169     1.0  0.89851  0.00838  0.84593  1.0000
  O  Te170     1.0  0.86777  0.10985  0.75779  1.0000
  O  Te171     1.0  0.83720  0.12477  0.88668  1.0000
  O  Te172     1.0  0.86796  0.02328  0.97481  1.0000
  Mg  Mg85      1.0  0.84375  0.14622  0.79714  1.0000
  Mg  Mg86      1.0  0.89998  0.98691  0.93555  1.0000
  C  Sn173     1.0  0.83191  0.90881  0.29593  1.0000
  C   C175      1.0  0.87012  0.93094  0.28717  1.0000
  C  Sn174     1.0  0.89675  0.95296  0.34609  1.0000
  C  Sn175     1.0  0.88499  0.95285  0.41525  1.0000
  C   C176      1.0  0.84681  0.93074  0.42399  1.0000
  C  Sn176     1.0  0.82015  0.90871  0.36509  1.0000
  O  Te173     1.0  0.80578  0.88701  0.23627  1.0000
  O  Te174     1.0  0.93478  0.97486  0.33599  1.0000
  O  Te175     1.0  0.91116  0.97468  0.47492  1.0000
  O  Te176     1.0  0.78216  0.88682  0.37518  1.0000
  Mg  Mg87      1.0  0.95974  0.99979  0.43388  1.0000
  Mg  Mg88      1.0  0.75720  0.86187  0.27734  1.0000
  C  Sn177     1.0  0.82710  0.47134  0.63495  1.0000
  C   C177      1.0  0.78448  0.45045  0.58272  1.0000
  C  Sn178     1.0  0.75440  0.45534  0.49924  1.0000
  C  Sn179     1.0  0.76720  0.48165  0.46729  1.0000
  C   C178      1.0  0.80979  0.50252  0.51950  1.0000
  C  Sn180     1.0  0.83990  0.49765  0.60299  1.0000
  O  Te177     1.0  0.85664  0.46599  0.71819  1.0000
  O  Te178     1.0  0.71196  0.43414  0.44824  1.0000
  O  Te179     1.0  0.73761  0.48699  0.38397  1.0000
  O  Te180     1.0  0.88232  0.51882  0.65398  1.0000
  Mg  Mg89      1.0  0.68358  0.45149  0.33919  1.0000
  Mg  Mg90      1.0  0.91075  0.50149  0.76303  1.0000
  C  Sn181     1.0  0.84904  0.53408  0.12452  1.0000
  C   C179      1.0  0.80674  0.55479  0.07226  1.0000
  C  Sn182     1.0  0.10659  0.54733  0.99827  1.0000
  C  Sn183     1.0  0.09947  0.51703  0.97607  1.0000
  C   C180      1.0  0.79266  0.49485  0.02832  1.0000
  C  Sn184     1.0  0.84192  0.50378  0.10232  1.0000
  O  Te181     1.0  0.89791  0.54352  0.19818  1.0000
  O  Te182     1.0  0.06491  0.56845  0.94702  1.0000
  O  Te183     1.0  0.05055  0.50760  0.90233  1.0000
  O  Te184     1.0  0.88358  0.48268  0.15355  1.0000
  Mg  Mg91      1.0  0.00583  0.54470  0.85312  1.0000
  Mg  Mg92      1.0  0.94265  0.50640  0.24748  1.0000
  C  Sn185     1.0  0.24079  0.98264  0.47792  1.0000
  C   C181      1.0  0.27713  0.00344  0.52790  1.0000
  C  Sn186     1.0  0.33526  0.99481  0.60109  1.0000
  C  Sn187     1.0  0.34129  0.96475  0.62479  1.0000
  C   C182      1.0  0.29701  0.94396  0.57482  1.0000
  C  Sn188     1.0  0.24683  0.95258  0.50162  1.0000
  O  Te185     1.0  0.19102  0.99176  0.40501  1.0000
  O  Te186     1.0  0.37098  0.01601  0.65006  1.0000
  O  Te187     1.0  0.39111  0.95563  0.69777  1.0000
  O  Te188     1.0  0.20316  0.93139  0.45266  1.0000
  Mg  Mg93      1.0  0.43859  0.99272  0.74372  1.0000
  Mg  Mg94      1.0  0.14353  0.95465  0.35897  1.0000
  C  Sn189     1.0  0.33071  0.01125  0.12372  1.0000
  C   C183      1.0  0.30529  0.99577  0.05119  1.0000
  C  Sn190     1.0  0.60920  0.01236  0.97970  1.0000
  C  Sn191     1.0  0.60531  0.04360  0.98071  1.0000
  C   C184      1.0  0.28960  0.05759  0.05320  1.0000
  C  Sn192     1.0  0.32682  0.04250  0.12472  1.0000
  O  Te189     1.0  0.37558  0.99570  0.19446  1.0000
  O  Te190     1.0  0.58421  0.99639  0.90795  1.0000
  O  Te191     1.0  0.56836  0.05915  0.90989  1.0000
  O  Te192     1.0  0.35977  0.05845  0.19644  1.0000
  Mg  Mg95      1.0  0.53230  0.02755  0.82728  1.0000
  Mg  Mg96      1.0  0.40375  0.02731  0.27713  1.0000
  C  Sn193     1.0  0.35920  0.57484  0.39511  1.0000
  C   C185      1.0  0.31993  0.55030  0.36084  1.0000
  C  Sn194     1.0  0.30349  0.53157  0.40881  1.0000
  C  Sn195     1.0  0.32675  0.53750  0.49279  1.0000
  C   C186      1.0  0.36598  0.56203  0.52702  1.0000
  C  Sn196     1.0  0.38246  0.58077  0.47909  1.0000
  O  Te193     1.0  0.37503  0.59326  0.34601  1.0000
  O  Te194     1.0  0.26418  0.50716  0.37317  1.0000
  O  Te195     1.0  0.31089  0.51905  0.54189  1.0000
  O  Te196     1.0  0.42174  0.60516  0.51468  1.0000
  Mg  Mg97      1.0  0.25593  0.48858  0.46527  1.0000
  Mg  Mg98      1.0  0.42998  0.62377  0.42264  1.0000
  C  Sn197     1.0  0.32663  0.47694  0.93691  1.0000
  C   C187      1.0  0.31644  0.45931  0.86986  1.0000
  C  Sn198     1.0  0.33168  0.42932  0.87966  1.0000
  C  Sn199     1.0  0.35761  0.41668  0.95810  1.0000
  C   C188      1.0  0.01870  0.43282  0.02509  1.0000
  C  Sn200     1.0  0.00348  0.46282  0.01535  1.0000
  O  Te197     1.0  0.31105  0.50687  0.92569  1.0000
  O  Te198     1.0  0.32108  0.41214  0.81172  1.0000
  O  Te199     1.0  0.37320  0.38672  0.96928  1.0000
  O  Te200     1.0  0.01406  0.47999  0.08323  1.0000
  Mg  Mg99      1.0  0.34998  0.37244  0.85803  1.0000
  Mg  Mg100     1.0  0.98514  0.51969  0.03699  1.0000
  C  Sn201     1.0  0.79067  0.03254  0.43714  1.0000
  C   C189      1.0  0.78373  0.04911  0.36980  1.0000
  C  Sn202     1.0  0.82652  0.07191  0.37796  1.0000
  C  Sn203     1.0  0.87735  0.07828  0.45501  1.0000
  C   C190      1.0  0.88428  0.06172  0.52229  1.0000
  C  Sn204     1.0  0.84150  0.03891  0.51419  1.0000
  O  Te201     1.0  0.74732  0.00985  0.42758  1.0000
  O  Te202     1.0  0.81859  0.08817  0.30976  1.0000
  O  Te203     1.0  0.92071  0.10099  0.46453  1.0000
  O  Te204     1.0  0.84941  0.02266  0.58233  1.0000
  Mg  Mg101     1.0  0.88997  0.11689  0.35358  1.0000
  Mg  Mg102     1.0  0.78605  0.99392  0.53858  1.0000
  C  Sn205     1.0  0.82503  0.91680  0.89461  1.0000
  C   C191      1.0  0.78901  0.94196  0.85965  1.0000
  C  Sn206     1.0  0.79823  0.96778  0.90523  1.0000
  C  Sn207     1.0  0.84444  0.96847  0.98745  1.0000
  C   C192      1.0  0.53136  0.94184  0.02236  1.0000
  C  Sn208     1.0  0.87125  0.91749  0.97683  1.0000
  O  Te205     1.0  0.81502  0.89123  0.84790  1.0000
  O  Te206     1.0  0.76162  0.99265  0.86897  1.0000
  O  Te207     1.0  0.50535  0.99258  0.03415  1.0000
  O  Te208     1.0  0.55875  0.89114  0.01305  1.0000
  Mg  Mg103     1.0  0.78486  0.02226  0.95756  1.0000
  Mg  Mg104     1.0  0.87669  0.86302  0.92451  1.0000
  C  Sn209     1.0  0.16224  0.48369  0.91034  1.0000
  C   C193      1.0  0.12149  0.50550  0.86100  1.0000
  C  Sn210     1.0  0.07327  0.49824  0.78453  1.0000
  C  Sn211     1.0  0.06560  0.46857  0.75682  1.0000
  C   C194      1.0  0.10632  0.44678  0.80615  1.0000
  C  Sn212     1.0  0.15456  0.45402  0.88262  1.0000
  O  Te209     1.0  0.21011  0.49145  0.98656  1.0000
  O  Te210     1.0  0.03313  0.52043  0.73628  1.0000
  O  Te211     1.0  0.01768  0.46083  0.68052  1.0000
  O  Te212     1.0  0.19468  0.43186  0.93086  1.0000
  Mg  Mg105     1.0  0.97497  0.49888  0.63710  1.0000
  Mg  Mg106     1.0  0.90375  0.45189  0.03006  1.0000
  C  Sn213     1.0  0.16941  0.53193  0.39426  1.0000
  C   C195      1.0  0.13687  0.54579  0.31934  1.0000
  C  Sn214     1.0  0.07962  0.53401  0.26101  1.0000
  C  Sn215     1.0  0.05435  0.50784  0.27792  1.0000
  C   C196      1.0  0.08688  0.49399  0.35279  1.0000
  C  Sn216     1.0  0.14414  0.50575  0.41116  1.0000
  O  Te213     1.0  0.22657  0.54410  0.45168  1.0000
  O  Te214     1.0  0.04797  0.54826  0.18655  1.0000
  O  Te215     1.0  0.99715  0.49567  0.22042  1.0000
  O  Te216     1.0  0.17578  0.49152  0.48559  1.0000
  Mg  Mg107     1.0  0.97166  0.52316  0.12795  1.0000
  Mg  Mg108     1.0  0.25207  0.51661  0.54424  1.0000
  C  Sn217     1.0  0.66092  0.98502  0.90326  1.0000
  C   C197      1.0  0.60912  0.00636  0.85668  1.0000
  C  Sn218     1.0  0.56446  0.99840  0.78472  1.0000
  C  Sn219     1.0  0.55544  0.96849  0.75879  1.0000
  C   C198      1.0  0.59925  0.94718  0.80537  1.0000
  C  Sn220     1.0  0.65190  0.95512  0.87734  1.0000
  O  Te217     1.0  0.71318  0.99348  0.97500  1.0000
  O  Te218     1.0  0.51333  0.02012  0.73916  1.0000
  O  Te219     1.0  0.50313  0.96005  0.68699  1.0000
  O  Te220     1.0  0.69504  0.93341  0.92289  1.0000
  Mg  Mg109     1.0  0.45753  0.99768  0.64589  1.0000
  Mg  Mg110     1.0  0.40972  0.95435  0.01618  1.0000
  C  Sn221     1.0  0.62842  0.02123  0.41772  1.0000
  C   C199      1.0  0.59835  0.99871  0.36719  1.0000
  C  Sn222     1.0  0.56751  0.00070  0.28326  1.0000
  C  Sn223     1.0  0.58300  0.02571  0.24913  1.0000
  C   C200      1.0  0.62102  0.04821  0.29964  1.0000
  C  Sn224     1.0  0.64391  0.04624  0.38358  1.0000
  O  Te221     1.0  0.65077  0.01878  0.50145  1.0000
  O  Te222     1.0  0.53751  0.97790  0.23398  1.0000
  O  Te223     1.0  0.56061  0.02814  0.16532  1.0000
  O  Te224     1.0  0.68186  0.06901  0.43285  1.0000
  Mg  Mg111     1.0  0.51852  0.99138  0.12344  1.0000
  Mg  Mg112     1.0  0.70090  0.05556  0.54339  1.0000
  C  Sn225     1.0  0.06892  0.60368  0.75954  1.0000
  C   C201      1.0  0.12316  0.60472  0.74630  1.0000
  C  Sn226     1.0  0.16344  0.58035  0.76428  1.0000
  C  Sn227     1.0  0.14919  0.55437  0.79611  1.0000
  C   C202      1.0  0.09497  0.55333  0.80931  1.0000
  C  Sn228     1.0  0.05467  0.57770  0.79136  1.0000
  O  Te225     1.0  0.02932  0.62831  0.74112  1.0000
  O  Te226     1.0  0.21741  0.58192  0.75056  1.0000
  O  Te227     1.0  0.18885  0.52973  0.81453  1.0000
  O  Te228     1.0  0.00073  0.57613  0.80505  1.0000
  Mg  Mg113     1.0  0.25671  0.54260  0.78521  1.0000
  Mg  Mg114     1.0  0.96138  0.61543  0.77039  1.0000
  C  Sn229     1.0  0.04708  0.41077  0.21263  1.0000
  C   C203      1.0  0.10389  0.40744  0.20614  1.0000
  C  Sn230     1.0  0.16035  0.42005  0.26393  1.0000
  C  Sn231     1.0  0.16004  0.43631  0.32961  1.0000
  C   C204      1.0  0.10326  0.43963  0.33609  1.0000
  C  Sn232     1.0  0.04677  0.42703  0.27831  1.0000
  O  Te229     1.0  0.99120  0.39797  0.15416  1.0000
  O  Te230     1.0  0.21655  0.41643  0.25614  1.0000
  O  Te231     1.0  0.21599  0.44912  0.38810  1.0000
  O  Te232     1.0  0.99060  0.43064  0.28609  1.0000
  Mg  Mg115     1.0  0.28049  0.43802  0.35120  1.0000
  Mg  Mg116     1.0  0.92665  0.40904  0.19110  1.0000
  C  Sn233     1.0  0.56099  0.10107  0.74699  1.0000
  C   C205      1.0  0.61822  0.10430  0.74137  1.0000
  C  Sn234     1.0  0.66412  0.08211  0.76953  1.0000
  C  Sn235     1.0  0.65257  0.05613  0.80398  1.0000
  C   C206      1.0  0.59537  0.05291  0.80957  1.0000
  C  Sn236     1.0  0.54944  0.07509  0.78143  1.0000
  O  Te233     1.0  0.51577  0.12354  0.71844  1.0000
  O  Te234     1.0  0.72099  0.08585  0.76330  1.0000
  O  Te235     1.0  0.69785  0.03366  0.83253  1.0000
  O  Te236     1.0  0.49260  0.07136  0.78764  1.0000
  Mg  Mg117     1.0  0.76788  0.04901  0.81067  1.0000
  Mg  Mg118     1.0  0.44566  0.10818  0.74025  1.0000
  C  Sn237     1.0  0.54359  0.90710  0.21291  1.0000
  C   C207      1.0  0.59914  0.90512  0.20283  1.0000
  C  Sn238     1.0  0.65470  0.91965  0.25637  1.0000
  C  Sn239     1.0  0.65475  0.93649  0.32138  1.0000
  C   C208      1.0  0.59924  0.93847  0.33144  1.0000
  C  Sn240     1.0  0.54365  0.92395  0.27791  1.0000
  O  Te237     1.0  0.48860  0.89239  0.15866  1.0000
  O  Te238     1.0  0.70964  0.91734  0.24505  1.0000
  O  Te239     1.0  0.70981  0.95121  0.37564  1.0000
  O  Te240     1.0  0.48874  0.92624  0.28922  1.0000
  Mg  Mg119     1.0  0.77271  0.94138  0.33498  1.0000
  Mg  Mg120     1.0  0.42565  0.90220  0.19936  1.0000
  C  Sn241     1.0  0.60798  0.74853  0.08379  1.0000
  C   C209      1.0  0.66281  0.74747  0.07186  1.0000
  C  Sn242     1.0  0.71835  0.73454  0.12981  1.0000
  C  Sn243     1.0  0.71911  0.72242  0.20115  1.0000
  C   C210      1.0  0.66430  0.72348  0.21304  1.0000
  C  Sn244     1.0  0.60874  0.73641  0.15513  1.0000
  O  Te241     1.0  0.55299  0.76156  0.02504  1.0000
  O  Te242     1.0  0.77258  0.73375  0.11656  1.0000
  O  Te243     1.0  0.77417  0.70938  0.25991  1.0000
  O  Te244     1.0  0.55454  0.73720  0.16835  1.0000
  Mg  Mg121     1.0  0.83593  0.71363  0.21430  1.0000
  Mg  Mg122     1.0  0.49115  0.75730  0.07063  1.0000
  C  Sn245     1.0  0.71569  0.28383  0.68854  1.0000
  C   C211      1.0  0.66059  0.28016  0.69904  1.0000
  C  Sn246     1.0  0.60925  0.26371  0.64321  1.0000
  C  Sn247     1.0  0.61308  0.25064  0.57550  1.0000
  C   C212      1.0  0.66816  0.25431  0.56504  1.0000
  C  Sn248     1.0  0.71952  0.27077  0.62084  1.0000
  O  Te245     1.0  0.76643  0.30037  0.74512  1.0000
  O  Te246     1.0  0.55466  0.26035  0.65497  1.0000
  O  Te247     1.0  0.56228  0.23409  0.51891  1.0000
  O  Te248     1.0  0.77409  0.27412  0.60911  1.0000
  Mg  Mg123     1.0  0.49814  0.23581  0.56127  1.0000
  Mg  Mg124     1.0  0.83064  0.29864  0.70279  1.0000
  C  Sn249     1.0  0.11473  0.25354  0.09439  1.0000
  C   C213      1.0  0.16823  0.24960  0.08063  1.0000
  C  Sn250     1.0  0.22191  0.23516  0.13776  1.0000
  C  Sn251     1.0  0.22211  0.22443  0.21015  1.0000
  C   C214      1.0  0.16862  0.22838  0.22387  1.0000
  C  Sn252     1.0  0.11492  0.24281  0.16677  1.0000
  O  Te249     1.0  0.06158  0.26804  0.03643  1.0000
  O  Te250     1.0  0.27484  0.23148  0.12267  1.0000
  O  Te251     1.0  0.27531  0.20993  0.26812  1.0000
  O  Te252     1.0  0.06201  0.24649  0.18183  1.0000
  Mg  Mg125     1.0  0.33583  0.21028  0.21996  1.0000
  Mg  Mg126     1.0  0.00099  0.26767  0.08457  1.0000
  C  Sn253     1.0  0.23060  0.77965  0.70127  1.0000
  C   C215      1.0  0.17647  0.77753  0.71453  1.0000
  C  Sn254     1.0  0.12113  0.76395  0.65713  1.0000
  C  Sn255     1.0  0.11988  0.75223  0.58500  1.0000
  C   C216      1.0  0.17398  0.75435  0.57177  1.0000
  C  Sn256     1.0  0.22934  0.76793  0.62913  1.0000
  O  Te253     1.0  0.28540  0.79331  0.75947  1.0000
  O  Te254     1.0  0.06760  0.76211  0.67173  1.0000
  O  Te255     1.0  0.06501  0.73856  0.52677  1.0000
  O  Te256     1.0  0.28285  0.76978  0.61457  1.0000
  Mg  Mg127     1.0  0.00425  0.74143  0.57426  1.0000
  Mg  Mg128     1.0  0.34623  0.79043  0.71201  1.0000
  C  Sn257     1.0  0.75432  0.56629  0.63033  1.0000
  C   C217      1.0  0.79702  0.58716  0.68250  1.0000
  C  Sn258     1.0  0.85239  0.59451  0.67570  1.0000
  C  Sn259     1.0  0.86534  0.58072  0.61547  1.0000
  C   C218      1.0  0.82265  0.55986  0.56334  1.0000
  C  Sn260     1.0  0.76727  0.55250  0.57010  1.0000
  O  Te257     1.0  0.69927  0.55928  0.63822  1.0000
  O  Te258     1.0  0.89436  0.61544  0.72857  1.0000
  O  Te259     1.0  0.92045  0.58774  0.60762  1.0000
  O  Te260     1.0  0.72531  0.53159  0.51727  1.0000
  Mg  Mg129     1.0  0.96298  0.61759  0.69382  1.0000
  Mg  Mg130     1.0  0.65666  0.52942  0.55194  1.0000
  C  Sn261     1.0  0.87328  0.41523  0.18213  1.0000
  C   C219      1.0  0.81812  0.41029  0.19170  1.0000
  C  Sn262     1.0  0.75978  0.42162  0.13575  1.0000
  C  Sn263     1.0  0.75650  0.43821  0.06880  1.0000
  C   C220      1.0  0.81163  0.44314  0.05924  1.0000
  C  Sn264     1.0  0.87000  0.43183  0.11518  1.0000
  O  Te261     1.0  0.93109  0.40370  0.23881  1.0000
  O  Te262     1.0  0.70529  0.41640  0.14662  1.0000
  O  Te263     1.0  0.69862  0.44975  0.01211  1.0000
  O  Te264     1.0  0.92447  0.43703  0.10433  1.0000
  Mg  Mg131     1.0  0.63761  0.43669  0.05308  1.0000
  Mg  Mg132     1.0  0.99216  0.41674  0.19780  1.0000
  C  Sn265     1.0  0.24599  0.06704  0.56537  1.0000
  C   C221      1.0  0.30203  0.06225  0.55794  1.0000
  C  Sn266     1.0  0.36010  0.07333  0.61622  1.0000
  C  Sn267     1.0  0.36221  0.08951  0.68337  1.0000
  C   C222      1.0  0.30619  0.09428  0.69079  1.0000
  C  Sn268     1.0  0.24810  0.08321  0.63252  1.0000
  O  Te265     1.0  0.18847  0.05576  0.50638  1.0000
  O  Te266     1.0  0.41549  0.06827  0.60746  1.0000
  O  Te267     1.0  0.41979  0.10078  0.74237  1.0000
  O  Te268     1.0  0.19273  0.08826  0.64126  1.0000
  Mg  Mg133     1.0  0.48232  0.08808  0.70373  1.0000
  Mg  Mg134     1.0  0.12588  0.06844  0.54505  1.0000
  C  Sn269     1.0  0.36169  0.91507  0.11658  1.0000
  C   C223      1.0  0.31852  0.93519  0.06296  1.0000
  C  Sn270     1.0  0.26301  0.94242  0.06929  1.0000
  C  Sn271     1.0  0.25041  0.92927  0.13054  1.0000
  C   C224      1.0  0.29358  0.90917  0.18412  1.0000
  C  Sn272     1.0  0.34909  0.90192  0.17782  1.0000
  O  Te269     1.0  0.41688  0.90817  0.10913  1.0000
  O  Te270     1.0  0.22055  0.96259  0.01497  1.0000
  O  Te271     1.0  0.19517  0.93618  0.13795  1.0000
  O  Te272     1.0  0.39154  0.88177  0.23211  1.0000
  Mg  Mg135     1.0  0.15193  0.96490  0.04965  1.0000
  Mg  Mg136     1.0  0.46019  0.87946  0.19752  1.0000
  C  Sn273     1.0  0.19454  0.57884  0.05595  1.0000
  C   C225      1.0  0.19295  0.56457  0.12222  1.0000
  C  Sn274     1.0  0.16098  0.53762  0.11191  1.0000
  C  Sn275     1.0  0.12999  0.52465  0.03373  1.0000
  C   C226      1.0  0.48069  0.54039  0.96752  1.0000
  C  Sn276     1.0  0.51263  0.56735  0.97777  1.0000
  O  Te273     1.0  0.22678  0.60576  0.06767  1.0000
  O  Te274     1.0  0.16002  0.52378  0.17908  1.0000
  O  Te275     1.0  0.09773  0.49770  0.02206  1.0000
  O  Te276     1.0  0.51361  0.58119  0.91066  1.0000
  Mg  Mg137     1.0  0.10987  0.48737  0.13232  1.0000
  Mg  Mg138     1.0  0.56377  0.61758  0.95736  1.0000
  C  Sn277     1.0  0.16515  0.42348  0.51179  1.0000
  C   C227      1.0  0.12112  0.44606  0.47584  1.0000
  C  Sn278     1.0  0.12025  0.47066  0.52121  1.0000
  C  Sn279     1.0  0.16433  0.47274  0.60423  1.0000
  C   C228      1.0  0.20834  0.45017  0.64014  1.0000
  C  Sn280     1.0  0.20924  0.42556  0.59482  1.0000
  O  Te277     1.0  0.16517  0.39909  0.46528  1.0000
  O  Te278     1.0  0.07577  0.49295  0.48393  1.0000
  O  Te279     1.0  0.16429  0.49716  0.65074  1.0000
  O  Te280     1.0  0.25369  0.40329  0.63204  1.0000
  Mg  Mg139     1.0  0.09457  0.52180  0.57265  1.0000
  Mg  Mg140     1.0  0.23495  0.37443  0.54338  1.0000
  C  Sn281     1.0  0.34051  0.06553  0.01039  1.0000
  C   C229      1.0  0.64298  0.04532  0.97298  1.0000
  C  Sn282     1.0  0.26877  0.02817  0.01751  1.0000
  C  Sn283     1.0  0.29065  0.03432  0.10117  1.0000
  C   C230      1.0  0.33722  0.05601  0.13852  1.0000
  C  Sn284     1.0  0.36238  0.07169  0.09404  1.0000
  O  Te281     1.0  0.71404  0.08241  0.96469  1.0000
  O  Te282     1.0  0.57131  0.00806  0.97879  1.0000
  O  Te283     1.0  0.26616  0.01890  0.14686  1.0000
  O  Te284     1.0  0.40889  0.09327  0.13272  1.0000
  Mg  Mg141     1.0  0.21148  0.99156  0.06684  1.0000
  Mg  Mg142     1.0  0.42761  0.10831  0.04472  1.0000
  C  Sn285     1.0  0.71538  0.93267  0.55305  1.0000
  C   C231      1.0  0.71185  0.94556  0.61990  1.0000
  C  Sn286     1.0  0.65788  0.96138  0.61010  1.0000
  C  Sn287     1.0  0.60633  0.96436  0.53186  1.0000
  C   C232      1.0  0.60987  0.95147  0.46506  1.0000
  C  Sn288     1.0  0.66384  0.93565  0.47480  1.0000
  O  Te285     1.0  0.76981  0.91695  0.56426  1.0000
  O  Te286     1.0  0.65546  0.97408  0.67785  1.0000
  O  Te287     1.0  0.55188  0.98010  0.52069  1.0000
  O  Te288     1.0  0.66626  0.92295  0.40712  1.0000
  Mg  Mg143     1.0  0.57107  0.99336  0.63163  1.0000
  Mg  Mg144     1.0  0.75061  0.90366  0.45327  1.0000
  C  Sn289     1.0  0.61497  0.53214  0.95447  1.0000
  C   C233      1.0  0.27054  0.54693  0.02141  1.0000
  C  Sn290     1.0  0.22695  0.56932  0.01187  1.0000
  C  Sn291     1.0  0.52674  0.57703  0.93380  1.0000
  C   C234      1.0  0.52210  0.56075  0.86693  1.0000
  C  Sn292     1.0  0.56567  0.53836  0.87641  1.0000
  O  Te289     1.0  0.65907  0.50986  0.96542  1.0000
  O  Te290     1.0  0.23258  0.58530  0.07969  1.0000
  O  Te291     1.0  0.48262  0.59933  0.92290  1.0000
  O  Te292     1.0  0.56005  0.52238  0.80864  1.0000
  Mg  Mg145     1.0  0.16099  0.61349  0.03385  1.0000
  Mg  Mg146     1.0  0.63159  0.49418  0.85441  1.0000
  C  Sn293     1.0  0.59501  0.46244  0.40890  1.0000
  C   C235      1.0  0.55652  0.43764  0.37496  1.0000
  C  Sn294     1.0  0.53766  0.41971  0.42214  1.0000
  C  Sn295     1.0  0.55765  0.42672  0.50498  1.0000
  C   C236      1.0  0.59611  0.45150  0.53888  1.0000
  C  Sn296     1.0  0.61500  0.46944  0.49174  1.0000
  O  Te293     1.0  0.61329  0.48006  0.36059  1.0000
  O  Te294     1.0  0.49919  0.39504  0.38686  1.0000
  O  Te295     1.0  0.53934  0.40908  0.55329  1.0000
  O  Te296     1.0  0.65344  0.49411  0.52698  1.0000
  Mg  Mg147     1.0  0.48674  0.37784  0.47755  1.0000
  Mg  Mg148     1.0  0.66589  0.51133  0.43634  1.0000
  C  Sn297     1.0  0.11258  0.03052  0.95322  1.0000
  C   C237      1.0  0.76988  0.04565  0.02043  1.0000
  C  Sn298     1.0  0.72766  0.06860  0.01161  1.0000
  C  Sn299     1.0  0.02707  0.07655  0.93400  1.0000
  C   C238      1.0  0.02071  0.05993  0.86685  1.0000
  C  Sn300     1.0  0.06292  0.03698  0.87561  1.0000
  O  Te297     1.0  0.15534  0.00768  0.96346  1.0000
  O  Te298     1.0  0.73501  0.08491  0.07970  1.0000
  O  Te299     1.0  0.98431  0.09941  0.92381  1.0000
  O  Te300     1.0  0.05558  0.02068  0.80759  1.0000
  Mg  Mg149     1.0  0.66480  0.11384  0.03487  1.0000
  Mg  Mg150     1.0  0.13370  0.99173  0.85235  1.0000
  C  Sn301     1.0  0.07380  0.91798  0.48775  1.0000
  C   C239      1.0  0.11105  0.94309  0.52200  1.0000
  C  Sn302     1.0  0.10320  0.96849  0.47564  1.0000
  C  Sn303     1.0  0.05714  0.96880  0.39333  1.0000
  C   C240      1.0  0.01991  0.94370  0.35913  1.0000
  C  Sn304     1.0  0.02774  0.91829  0.40544  1.0000
  O  Te301     1.0  0.08246  0.89283  0.53523  1.0000
  O  Te302     1.0  0.14101  0.99333  0.51121  1.0000
  O  Te303     1.0  0.04850  0.99397  0.34586  1.0000
  O  Te304     1.0  0.98995  0.89347  0.36992  1.0000
  Mg  Mg151     1.0  0.10346  0.02229  0.42169  1.0000
  Mg  Mg152     1.0  0.01948  0.86450  0.45938  1.0000
  C  Sn305     1.0  0.77346  0.67237  0.02302  1.0000
  C   C241      1.0  0.06563  0.68861  0.97658  1.0000
  C  Sn306     1.0  0.00722  0.67570  0.96175  1.0000
  C  Sn307     1.0  0.00565  0.64746  0.99405  1.0000
  C   C242      1.0  0.71345  0.63124  0.04047  1.0000
  C  Sn308     1.0  0.77189  0.64413  0.05533  1.0000
  O  Te305     1.0  0.83131  0.68570  0.03709  1.0000
  O  Te306     1.0  0.95096  0.69087  0.91512  1.0000
  O  Te307     1.0  0.94773  0.63414  0.97995  1.0000
  O  Te308     1.0  0.82812  0.62898  0.10194  1.0000
  Mg  Mg153     1.0  0.88398  0.66355  0.91281  1.0000
  Mg  Mg154     1.0  0.89513  0.65628  0.10432  1.0000
  C  Sn309     1.0  0.65161  0.33447  0.45468  1.0000
  C   C243      1.0  0.69863  0.31344  0.46774  1.0000
  C  Sn310     1.0  0.76203  0.31923  0.52186  1.0000
  C  Sn311     1.0  0.77880  0.34661  0.56384  1.0000
  C   C244      1.0  0.73180  0.36762  0.55078  1.0000
  C  Sn312     1.0  0.66838  0.36185  0.49666  1.0000
  O  Te309     1.0  0.58853  0.32821  0.40030  1.0000
  O  Te310     1.0  0.80820  0.29786  0.53390  1.0000
  O  Te311     1.0  0.84194  0.35286  0.61825  1.0000
  O  Te312     1.0  0.62223  0.38320  0.48463  1.0000
  Mg  Mg155     1.0  0.88766  0.31671  0.61416  1.0000
  Mg  Mg156     1.0  0.54275  0.36437  0.40442  1.0000
  C  Sn313     1.0  0.80577  0.16753  0.00970  1.0000
  C   C245      1.0  0.85245  0.18846  0.01859  1.0000
  C  Sn314     1.0  0.91333  0.17948  0.03223  1.0000
  C  Sn315     1.0  0.92786  0.14895  0.03704  1.0000
  C   C246      1.0  0.88119  0.12804  0.02814  1.0000
  C  Sn316     1.0  0.82029  0.13700  0.01451  1.0000
  O  Te313     1.0  0.09431  0.17849  0.99610  1.0000
  O  Te314     1.0  0.95922  0.20081  0.04095  1.0000
  O  Te315     1.0  0.98846  0.13948  0.05065  1.0000
  O  Te316     1.0  0.77443  0.11569  0.00578  1.0000
  Mg  Mg157     1.0  0.03481  0.17693  0.05855  1.0000
  Mg  Mg158     1.0  0.04790  0.14103  0.98814  1.0000
  C  Sn317     1.0  0.15639  0.84873  0.50971  1.0000
  C   C247      1.0  0.21306  0.86480  0.54877  1.0000
  C  Sn318     1.0  0.27031  0.85324  0.55533  1.0000
  C  Sn319     1.0  0.27092  0.82502  0.52211  1.0000
  C   C248      1.0  0.21428  0.80897  0.48307  1.0000
  C  Sn320     1.0  0.15700  0.82051  0.47650  1.0000
  O  Te317     1.0  0.09971  0.86073  0.50386  1.0000
  O  Te318     1.0  0.32636  0.86972  0.59467  1.0000
  O  Te319     1.0  0.32767  0.81303  0.52799  1.0000
  O  Te320     1.0  0.10098  0.80405  0.43717  1.0000
  Mg  Mg159     1.0  0.39159  0.84394  0.58718  1.0000
  Mg  Mg160     1.0  0.03572  0.82982  0.44459  1.0000
