data_image0
_chemical_formula_structural       H24C60S24N32SnCSn2CSnTe4Mg2SnCSn2CSnTe4Mg2SnCSn2CSnTe4Mg2SnCSn2CSnTe4Mg2SnCSn2CSnTe4Mg2SnCSn2CSnTe4Mg2SnCSn2CSnTe4Mg2SnCSn2CSnTe4Mg2SnCSn2CSnTe4Mg2SnCSn2CSnTe4Mg2SnCSn2CSnTe4Mg2SnCSn2CSnTe4Mg2SnCSn2CSnTe4Mg2SnCSn2CSnTe4Mg2SnCSn2CSnTe4Mg2SnCSn2CSnTe4Mg2SnCSn2CSnTe4Mg2SnCSn2CSnTe4Mg2SnCSn2CSnTe4Mg2SnCSn2CSnTe4Mg2SnCSn2CSnTe4Mg2SnCSn2CSnTe4Mg2SnCSn2CSnTe4Mg2SnCSn2CSnTe4Mg2SnCSn2CSnTe4Mg2SnCSn2CSnTe4Mg2SnCSn2CSnTe4Mg2SnCSn2CSnTe4Mg2SnCSn2CSnTe4Mg2SnCSn2CSnTe4Mg2SnCSn2CSnTe4Mg2SnCSn2CSnTe4Mg2SnCSn2CSnTe4Mg2SnCSn2CSnTe4Mg2SnCSn2CSnTe4Mg2SnCSn2CSnTe4Mg2SnCSn2CSnTe4Mg2SnCSn2CSnTe4Mg2SnCSn2CSnTe4Mg2SnCSn2CSnTe4Mg2SnCSn2CSnTe4Mg2SnCSn2CSnTe4Mg2SnCSn2CSnTe4Mg2SnCSn2CSnTe4Mg2SnCSn2CSnTe4Mg2SnCSn2CSnTe4Mg2SnCSn2CSnTe4Mg2SnCSn2CSnTe4Mg2
_chemical_formula_sum              "H24 C156 S24 N32 Sn192 Te192 Mg96"
_cell_length_a       10.344
_cell_length_b       87.8834
_cell_length_c       27.1818
_cell_angle_alpha    90.5872
_cell_angle_beta     90.5697
_cell_angle_gamma    90.2136

_symmetry_space_group_name_H-M    'P1'
_space_group_IT_number       1

loop_
  _space_group_symop_operation_xyz
  'x, y, z'

loop_
  _atom_site_type_symbol
  _atom_site_label
  _atom_site_symmetry_multiplicity
  _atom_site_fract_x
  _atom_site_fract_y
  _atom_site_fract_z
  _atom_site_occupancy
  H   H1        1.0  0.65297  0.80232  0.29766  1.0000
  H   H2        1.0  0.34630  0.19576  0.28287  1.0000
  H   H3        1.0  0.34926  0.80134  0.70784  1.0000
  H   H4        1.0  0.66744  0.19066  0.72531  1.0000
  H   H5        1.0  0.14825  0.30741  0.28057  1.0000
  H   H6        1.0  0.86225  0.70108  0.30031  1.0000
  H   H7        1.0  0.82001  0.30860  0.72933  1.0000
  H   H8        1.0  0.11874  0.70262  0.69394  1.0000
  H   H9        1.0  0.33655  0.19263  0.71203  1.0000
  H   H10       1.0  0.69814  0.80894  0.72522  1.0000
  H   H11       1.0  0.62681  0.19738  0.29243  1.0000
  H   H12       1.0  0.32814  0.80969  0.27828  1.0000
  H   H13       1.0  0.80730  0.68962  0.72240  1.0000
  H   H14       1.0  0.14725  0.30231  0.70508  1.0000
  H   H15       1.0  0.19150  0.68975  0.27478  1.0000
  H   H16       1.0  0.87479  0.30448  0.29339  1.0000
  H   H17       1.0  0.27064  0.39887  0.44860  1.0000
  H   H18       1.0  0.74965  0.60145  0.43615  1.0000
  H   H19       1.0  0.76522  0.39712  0.43344  1.0000
  H   H20       1.0  0.24645  0.60212  0.56157  1.0000
  H   H21       1.0  0.74559  0.89845  0.44461  1.0000
  H   H22       1.0  0.31545  0.10417  0.55675  1.0000
  H   H23       1.0  0.27741  0.89711  0.43753  1.0000
  H   H24       1.0  0.78609  0.10043  0.55304  1.0000
  C   C1        1.0  0.73747  0.75799  0.12012  1.0000
  C   C2        1.0  0.25760  0.24332  0.11486  1.0000
  C   C3        1.0  0.25553  0.75707  0.88315  1.0000
  C   C4        1.0  0.73257  0.24158  0.88704  1.0000
  C   C5        1.0  0.25785  0.25894  0.11471  1.0000
  C   C6        1.0  0.73640  0.74246  0.11978  1.0000
  C   C7        1.0  0.73838  0.25721  0.88651  1.0000
  C   C8        1.0  0.24702  0.74158  0.88302  1.0000
  C   C9        1.0  0.26162  0.24149  0.87960  1.0000
  C   C10       1.0  0.74273  0.75716  0.88371  1.0000
  C   C11       1.0  0.74495  0.24237  0.12081  1.0000
  C   C12       1.0  0.26477  0.75799  0.11760  1.0000
  C   C13       1.0  0.74054  0.74150  0.88341  1.0000
  C   C14       1.0  0.25663  0.25704  0.87823  1.0000
  C   C15       1.0  0.25785  0.74235  0.11857  1.0000
  C   C16       1.0  0.75259  0.25793  0.12136  1.0000
  C   C17       1.0  0.74245  0.79570  0.29440  1.0000
  C   C18       1.0  0.27564  0.20506  0.28512  1.0000
  C   C19       1.0  0.25789  0.79507  0.71191  1.0000
  C   C20       1.0  0.72007  0.20136  0.71934  1.0000
  C   C21       1.0  0.22250  0.29849  0.28440  1.0000
  C   C22       1.0  0.76378  0.70501  0.29173  1.0000
  C   C23       1.0  0.77754  0.29730  0.72156  1.0000
  C   C24       1.0  0.21780  0.70569  0.70519  1.0000
  C   C25       1.0  0.26965  0.20230  0.70935  1.0000
  C   C26       1.0  0.73920  0.79757  0.71822  1.0000
  C   C27       1.0  0.71950  0.20345  0.28895  1.0000
  C   C28       1.0  0.27768  0.79880  0.28372  1.0000
  C   C29       1.0  0.76981  0.70115  0.71563  1.0000
  C   C30       1.0  0.23353  0.29500  0.70698  1.0000
  C   C31       1.0  0.22539  0.70142  0.28267  1.0000
  C   C32       1.0  0.80073  0.29550  0.29418  1.0000
  C   C33       1.0  0.72448  0.74986  0.02697  1.0000
  C   C34       1.0  0.26324  0.25073  0.02171  1.0000
  C   C35       1.0  0.27057  0.74927  0.97545  1.0000
  C   C36       1.0  0.72463  0.25014  0.97912  1.0000
  C   C37       1.0  0.26774  0.25037  0.97171  1.0000
  C   C38       1.0  0.72964  0.74959  0.97688  1.0000
  C   C39       1.0  0.73335  0.25025  0.02895  1.0000
  C   C40       1.0  0.27791  0.74932  0.02546  1.0000
  C   C41       1.0  0.56263  0.03654  0.49817  1.0000
  C   C42       1.0  0.42607  0.96359  0.49872  1.0000
  C   C43       1.0  0.43106  0.03701  0.49981  1.0000
  C   C44       1.0  0.55773  0.96384  0.49911  1.0000
  C   C45       1.0  0.06377  0.53619  0.50334  1.0000
  C   C46       1.0  0.93753  0.46367  0.49025  1.0000
  C   C47       1.0  0.93271  0.53611  0.49632  1.0000
  C   C48       1.0  0.06778  0.46392  0.49741  1.0000
  C   C49       1.0  0.71921  0.90224  0.48194  1.0000
  C   C50       1.0  0.29109  0.09940  0.52017  1.0000
  C   C51       1.0  0.27578  0.90141  0.47579  1.0000
  C   C52       1.0  0.74858  0.09719  0.51633  1.0000
  C   C53       1.0  0.24236  0.40277  0.48553  1.0000
  C   C54       1.0  0.77865  0.59772  0.47322  1.0000
  C   C55       1.0  0.77567  0.40176  0.47111  1.0000
  C   C56       1.0  0.21805  0.59807  0.52453  1.0000
  C   C57       1.0  0.48966  0.00799  0.49822  1.0000
  C   C58       1.0  0.48889  0.99245  0.49890  1.0000
  C   C59       1.0  0.99549  0.50767  0.50626  1.0000
  C   C60       1.0  0.99628  0.49217  0.50511  1.0000
  S   S1        1.0  0.72020  0.73320  0.06254  1.0000
  S   S2        1.0  0.26139  0.26768  0.05674  1.0000
  S   S3        1.0  0.25937  0.73241  0.93992  1.0000
  S   S4        1.0  0.72268  0.26669  0.94372  1.0000
  S   S5        1.0  0.26190  0.23406  0.05706  1.0000
  S   S6        1.0  0.71986  0.76683  0.06228  1.0000
  S   S7        1.0  0.70771  0.23321  0.94493  1.0000
  S   S8        1.0  0.27754  0.76612  0.94082  1.0000
  S   S9        1.0  0.26766  0.26679  0.93511  1.0000
  S   S10       1.0  0.72839  0.73267  0.94141  1.0000
  S   S11       1.0  0.74531  0.26711  0.06419  1.0000
  S   S12       1.0  0.27658  0.73283  0.06133  1.0000
  S   S13       1.0  0.73392  0.76623  0.94165  1.0000
  S   S14       1.0  0.27866  0.23320  0.93804  1.0000
  S   S15       1.0  0.29437  0.76618  0.05991  1.0000
  S   S16       1.0  0.72971  0.23336  0.06305  1.0000
  S   S17       1.0  0.63555  0.01857  0.49570  1.0000
  S   S18       1.0  0.34640  0.98121  0.49870  1.0000
  S   S19       1.0  0.34915  0.01946  0.49953  1.0000
  S   S20       1.0  0.63379  0.98170  0.49932  1.0000
  S   S21       1.0  0.13788  0.51864  0.51492  1.0000
  S   S22       1.0  0.85507  0.48099  0.49696  1.0000
  S   S23       1.0  0.85291  0.51852  0.49995  1.0000
  S   S24       1.0  0.13938  0.48150  0.51282  1.0000
  N   N1        1.0  0.82958  0.79646  0.32852  1.0000
  N   N2        1.0  0.20993  0.20748  0.32450  1.0000
  N   N3        1.0  0.16528  0.79652  0.68004  1.0000
  N   N4        1.0  0.76560  0.20527  0.67700  1.0000
  N   N5        1.0  0.28865  0.29683  0.32452  1.0000
  N   N6        1.0  0.66815  0.70130  0.31956  1.0000
  N   N7        1.0  0.74231  0.29297  0.67773  1.0000
  N   N8        1.0  0.31502  0.70143  0.67892  1.0000
  N   N9        1.0  0.20787  0.20533  0.66907  1.0000
  N   N10       1.0  0.77263  0.79300  0.67474  1.0000
  N   N11       1.0  0.80958  0.20208  0.32156  1.0000
  N   N12       1.0  0.23690  0.79439  0.32622  1.0000
  N   N13       1.0  0.73951  0.70593  0.67209  1.0000
  N   N14       1.0  0.31875  0.29513  0.67255  1.0000
  N   N15       1.0  0.25397  0.70607  0.32690  1.0000
  N   N16       1.0  0.73288  0.29316  0.33340  1.0000
  N   N17       1.0  0.70101  0.89292  0.51767  1.0000
  N   N18       1.0  0.26804  0.10796  0.48271  1.0000
  N   N19       1.0  0.27450  0.89247  0.51321  1.0000
  N   N20       1.0  0.71392  0.10695  0.48356  1.0000
  N   N21       1.0  0.21919  0.39347  0.52106  1.0000
  N   N22       1.0  0.80001  0.60719  0.50909  1.0000
  N   N23       1.0  0.77541  0.39335  0.50988  1.0000
  N   N24       1.0  0.19947  0.60724  0.48835  1.0000
  N   N25       1.0  0.21013  0.32950  0.50219  1.0000
  N   N26       1.0  0.78149  0.67111  0.49735  1.0000
  N   N27       1.0  0.76257  0.32905  0.50687  1.0000
  N   N28       1.0  0.20829  0.67109  0.49862  1.0000
  N   N29       1.0  0.72497  0.82894  0.50428  1.0000
  N   N30       1.0  0.29331  0.17201  0.49386  1.0000
  N   N31       1.0  0.25945  0.82835  0.50392  1.0000
  N   N32       1.0  0.73761  0.17080  0.50031  1.0000
  C  Sn1       1.0  0.84730  0.82703  0.41162  1.0000
  C   C61       1.0  0.74781  0.82472  0.44518  1.0000
  C  Sn2       1.0  0.67846  0.81105  0.44489  1.0000
  C  Sn3       1.0  0.70925  0.79944  0.41037  1.0000
  C   C62       1.0  0.80870  0.80175  0.37685  1.0000
  C  Sn4       1.0  0.87808  0.81542  0.37710  1.0000
  O  Te1       1.0  0.91535  0.84078  0.41258  1.0000
  O  Te2       1.0  0.57938  0.80900  0.47878  1.0000
  O  Te3       1.0  0.64109  0.78568  0.40944  1.0000
  O  Te4       1.0  0.97712  0.81746  0.34324  1.0000
  Mg  Mg1       1.0  0.51454  0.78828  0.46299  1.0000
  Mg  Mg2       1.0  0.04207  0.83818  0.35902  1.0000
  C  Sn5       1.0  0.11674  0.18903  0.39788  1.0000
  C   C63       1.0  0.20072  0.19982  0.37823  1.0000
  C  Sn6       1.0  0.33085  0.20018  0.39245  1.0000
  C  Sn7       1.0  0.37805  0.18951  0.42701  1.0000
  C   C64       1.0  0.29409  0.17873  0.44664  1.0000
  C  Sn8       1.0  0.16394  0.17837  0.43244  1.0000
  O  Te5       1.0  0.98703  0.18889  0.38312  1.0000
  O  Te6       1.0  0.41294  0.21108  0.37231  1.0000
  O  Te7       1.0  0.50787  0.18966  0.44176  1.0000
  O  Te8       1.0  0.08188  0.16747  0.45255  1.0000
  Mg  Mg3       1.0  0.58177  0.20669  0.40394  1.0000
  Mg  Mg4       1.0  0.91305  0.17185  0.42093  1.0000
  C  Sn9       1.0  0.15406  0.82718  0.59886  1.0000
  C   C65       1.0  0.24426  0.82377  0.56247  1.0000
  C  Sn10      1.0  0.30296  0.80948  0.56077  1.0000
  C  Sn11      1.0  0.27078  0.79838  0.59616  1.0000
  C   C66       1.0  0.18063  0.80180  0.63251  1.0000
  C  Sn12      1.0  0.12189  0.81608  0.63424  1.0000
  O  Te9       1.0  0.09658  0.84153  0.59985  1.0000
  O  Te10      1.0  0.39287  0.80634  0.52406  1.0000
  O  Te11      1.0  0.32836  0.78402  0.59514  1.0000
  O  Te12      1.0  0.03201  0.81923  0.67092  1.0000
  Mg  Mg5       1.0  0.44501  0.78515  0.53800  1.0000
  Mg  Mg6       1.0  0.97977  0.84041  0.65701  1.0000
  C  Sn13      1.0  0.65109  0.17612  0.59608  1.0000
  C   C67       1.0  0.70148  0.18026  0.55059  1.0000
  C  Sn14      1.0  0.79216  0.19202  0.54760  1.0000
  C  Sn15      1.0  0.83340  0.19981  0.59098  1.0000
  C   C68       1.0  0.78304  0.19567  0.63643  1.0000
  C  Sn16      1.0  0.69234  0.18391  0.63945  1.0000
  O  Te13      1.0  0.56054  0.16433  0.59820  1.0000
  O  Te14      1.0  0.84112  0.19596  0.50171  1.0000
  O  Te15      1.0  0.92403  0.21161  0.58882  1.0000
  O  Te16      1.0  0.64340  0.17997  0.68531  1.0000
  Mg  Mg7       1.0  0.96255  0.21280  0.51777  1.0000
  Mg  Mg8       1.0  0.52202  0.16313  0.66929  1.0000
  C  Sn17      1.0  0.12209  0.31382  0.38582  1.0000
  C   C69       1.0  0.23816  0.31010  0.36281  1.0000
  C  Sn18      1.0  0.35550  0.31141  0.38841  1.0000
  C  Sn19      1.0  0.35687  0.31654  0.43806  1.0000
  C   C70       1.0  0.24086  0.32025  0.46105  1.0000
  C  Sn20      1.0  0.12346  0.31894  0.43547  1.0000
  O  Te17      1.0  0.00592  0.31242  0.35952  1.0000
  O  Te18      1.0  0.47028  0.30763  0.36461  1.0000
  O  Te19      1.0  0.47318  0.31793  0.46435  1.0000
  O  Te20      1.0  0.00873  0.32271  0.45924  1.0000
  Mg  Mg9       1.0  0.60404  0.31142  0.41594  1.0000
  Mg  Mg10      1.0  0.87492  0.31893  0.40796  1.0000
  C  Sn21      1.0  0.79257  0.69672  0.43878  1.0000
  C   C71       1.0  0.73934  0.68310  0.45551  1.0000
  C  Sn22      1.0  0.66999  0.67356  0.42333  1.0000
  C  Sn23      1.0  0.65356  0.67771  0.37337  1.0000
  C   C72       1.0  0.70678  0.69132  0.35666  1.0000
  C  Sn24      1.0  0.77614  0.70087  0.38883  1.0000
  O  Te21      1.0  0.86154  0.70609  0.47160  1.0000
  O  Te22      1.0  0.61763  0.66001  0.44091  1.0000
  O  Te23      1.0  0.58451  0.66833  0.34055  1.0000
  O  Te24      1.0  0.82849  0.71441  0.37126  1.0000
  Mg  Mg11      1.0  0.53161  0.65104  0.38198  1.0000
  Mg  Mg12      1.0  0.91458  0.72339  0.43015  1.0000
  C  Sn25      1.0  0.64698  0.30694  0.56573  1.0000
  C   C73       1.0  0.71542  0.32038  0.55712  1.0000
  C  Sn26      1.0  0.81898  0.32463  0.58770  1.0000
  C  Sn27      1.0  0.85493  0.31526  0.62771  1.0000
  C   C74       1.0  0.78652  0.30184  0.63630  1.0000
  C  Sn28      1.0  0.68293  0.29757  0.60574  1.0000
  O  Te25      1.0  0.54379  0.30290  0.53469  1.0000
  O  Te26      1.0  0.88591  0.33812  0.57837  1.0000
  O  Te27      1.0  0.95821  0.31931  0.65876  1.0000
  O  Te28      1.0  0.61603  0.28409  0.61505  1.0000
  Mg  Mg13      1.0  0.01957  0.33875  0.63100  1.0000
  Mg  Mg14      1.0  0.48241  0.28345  0.56243  1.0000
  C  Sn29      1.0  0.38338  0.68045  0.60661  1.0000
  C   C75       1.0  0.32725  0.69386  0.62413  1.0000
  C  Sn30      1.0  0.21259  0.69924  0.60315  1.0000
  C  Sn31      1.0  0.15272  0.69103  0.56387  1.0000
  C   C76       1.0  0.20883  0.67762  0.54639  1.0000
  C  Sn32      1.0  0.32351  0.67224  0.56733  1.0000
  O  Te29      1.0  0.49803  0.67528  0.62813  1.0000
  O  Te30      1.0  0.15832  0.71268  0.62128  1.0000
  O  Te31      1.0  0.03798  0.69621  0.54235  1.0000
  O  Te32      1.0  0.37775  0.65880  0.54924  1.0000
  Mg  Mg15      1.0  0.00134  0.71510  0.57987  1.0000
  Mg  Mg16      1.0  0.53469  0.65637  0.59063  1.0000
  C  Sn33      1.0  0.37462  0.18111  0.58810  1.0000
  C   C77       1.0  0.28252  0.17715  0.55220  1.0000
  C  Sn34      1.0  0.16275  0.18443  0.55086  1.0000
  C  Sn35      1.0  0.13446  0.19592  0.58612  1.0000
  C   C78       1.0  0.22653  0.19987  0.62199  1.0000
  C  Sn36      1.0  0.34633  0.19260  0.62336  1.0000
  O  Te33      1.0  0.49372  0.17368  0.58874  1.0000
  O  Te34      1.0  0.07222  0.18027  0.51463  1.0000
  O  Te35      1.0  0.01524  0.20335  0.58545  1.0000
  O  Te36      1.0  0.43684  0.19675  0.65956  1.0000
  Mg  Mg17      1.0  0.92365  0.19369  0.52892  1.0000
  Mg  Mg18      1.0  0.58546  0.18334  0.64529  1.0000
  C  Sn37      1.0  0.81015  0.80293  0.55242  1.0000
  C   C79       1.0  0.72608  0.81498  0.54285  1.0000
  C  Sn38      1.0  0.65719  0.82181  0.58104  1.0000
  C  Sn39      1.0  0.67271  0.81650  0.62983  1.0000
  C   C80       1.0  0.75675  0.80446  0.63938  1.0000
  C  Sn40      1.0  0.82567  0.79762  0.60121  1.0000
  O  Te37      1.0  0.87805  0.79627  0.51367  1.0000
  O  Te38      1.0  0.57367  0.83383  0.57057  1.0000
  O  Te39      1.0  0.60471  0.82317  0.66859  1.0000
  O  Te40      1.0  0.90916  0.78560  0.61166  1.0000
  Mg  Mg19      1.0  0.50250  0.83920  0.63580  1.0000
  Mg  Mg20      1.0  0.98042  0.78023  0.54647  1.0000
  C  Sn41      1.0  0.66733  0.19407  0.43424  1.0000
  C   C81       1.0  0.70564  0.17934  0.44641  1.0000
  C  Sn42      1.0  0.79787  0.17174  0.41824  1.0000
  C  Sn43      1.0  0.85303  0.17902  0.37707  1.0000
  C   C82       1.0  0.81474  0.19374  0.36494  1.0000
  C  Sn44      1.0  0.72249  0.20135  0.39308  1.0000
  O  Te41      1.0  0.57498  0.20146  0.46292  1.0000
  O  Te42      1.0  0.83460  0.15701  0.43111  1.0000
  O  Te43      1.0  0.94545  0.17162  0.34839  1.0000
  O  Te44      1.0  0.68578  0.21607  0.38023  1.0000
  Mg  Mg21      1.0  0.96403  0.15165  0.38070  1.0000
  Mg  Mg22      1.0  0.55641  0.22144  0.43063  1.0000
  C  Sn45      1.0  0.21494  0.80132  0.45152  1.0000
  C   C83       1.0  0.27741  0.81510  0.46232  1.0000
  C  Sn46      1.0  0.32424  0.82417  0.42449  1.0000
  C  Sn47      1.0  0.30823  0.81937  0.37481  1.0000
  C   C84       1.0  0.24577  0.80560  0.36403  1.0000
  C  Sn48      1.0  0.19892  0.79652  0.40184  1.0000
  O  Te45      1.0  0.16889  0.79244  0.48993  1.0000
  O  Te46      1.0  0.38641  0.83789  0.43620  1.0000
  O  Te47      1.0  0.35435  0.82827  0.33639  1.0000
  O  Te48      1.0  0.13677  0.78281  0.39015  1.0000
  Mg  Mg23      1.0  0.43232  0.84603  0.37098  1.0000
  Mg  Mg24      1.0  0.09077  0.77466  0.45533  1.0000
  C  Sn49      1.0  0.88554  0.68606  0.61189  1.0000
  C   C85       1.0  0.79762  0.69753  0.62373  1.0000
  C  Sn50      1.0  0.68660  0.69963  0.59495  1.0000
  C  Sn51      1.0  0.66292  0.69005  0.55349  1.0000
  C   C86       1.0  0.75080  0.67859  0.54167  1.0000
  C  Sn52      1.0  0.86187  0.67648  0.57043  1.0000
  O  Te49      1.0  0.99589  0.68417  0.64118  1.0000
  O  Te50      1.0  0.60013  0.71117  0.60750  1.0000
  O  Te51      1.0  0.55247  0.69195  0.52419  1.0000
  O  Te52      1.0  0.94829  0.66494  0.55790  1.0000
  Mg  Mg25      1.0  0.46352  0.70925  0.55626  1.0000
  Mg  Mg26      1.0  0.08489  0.66685  0.60913  1.0000
  C  Sn53      1.0  0.38739  0.31771  0.57095  1.0000
  C   C87       1.0  0.27514  0.31764  0.54191  1.0000
  C  Sn54      1.0  0.16154  0.31101  0.55914  1.0000
  C  Sn55      1.0  0.16007  0.30432  0.60641  1.0000
  C   C88       1.0  0.27226  0.30441  0.63543  1.0000
  C  Sn56      1.0  0.38592  0.31103  0.61822  1.0000
  O  Te53      1.0  0.49986  0.32441  0.55298  1.0000
  O  Te54      1.0  0.05054  0.31106  0.52943  1.0000
  O  Te55      1.0  0.04747  0.29763  0.62437  1.0000
  O  Te56      1.0  0.49686  0.31098  0.64790  1.0000
  Mg  Mg27      1.0  0.92097  0.30055  0.57020  1.0000
  Mg  Mg28      1.0  0.62645  0.32150  0.60718  1.0000
  C  Sn57      1.0  0.11144  0.68534  0.38388  1.0000
  C   C89       1.0  0.19685  0.69724  0.37376  1.0000
  C  Sn58      1.0  0.30618  0.69971  0.40339  1.0000
  C  Sn59      1.0  0.33071  0.69009  0.44397  1.0000
  C   C90       1.0  0.24535  0.67820  0.45407  1.0000
  C  Sn60      1.0  0.13597  0.67572  0.42446  1.0000
  O  Te57      1.0  0.00275  0.68308  0.35377  1.0000
  O  Te58      1.0  0.39014  0.71168  0.39255  1.0000
  O  Te59      1.0  0.43951  0.69236  0.47409  1.0000
  O  Te60      1.0  0.05206  0.66376  0.43528  1.0000
  Mg  Mg29      1.0  0.52522  0.71016  0.44436  1.0000
  Mg  Mg30      1.0  0.91699  0.66526  0.38348  1.0000
  C  Sn61      1.0  0.77781  0.29630  0.43318  1.0000
  C   C91       1.0  0.72150  0.29998  0.38790  1.0000
  C  Sn62      1.0  0.69426  0.31510  0.37659  1.0000
  C  Sn63      1.0  0.72398  0.32681  0.41124  1.0000
  C   C92       1.0  0.78027  0.32313  0.45647  1.0000
  C  Sn64      1.0  0.80753  0.30801  0.46782  1.0000
  O  Te61      1.0  0.80420  0.28110  0.44370  1.0000
  O  Te62      1.0  0.63791  0.31850  0.33110  1.0000
  O  Te63      1.0  0.69753  0.34202  0.40067  1.0000
  O  Te64      1.0  0.86386  0.30461  0.51328  1.0000
  Mg  Mg31      1.0  0.62038  0.34091  0.33380  1.0000
  Mg  Mg32      1.0  0.88150  0.28220  0.51061  1.0000
  C  Sn65      1.0  0.70655  0.85588  0.55823  1.0000
  C   C93       1.0  0.69047  0.84631  0.51723  1.0000
  C  Sn66      1.0  0.69019  0.85229  0.46982  1.0000
  C  Sn67      1.0  0.70640  0.86817  0.46323  1.0000
  C   C94       1.0  0.72249  0.87773  0.50421  1.0000
  C  Sn68      1.0  0.72276  0.87176  0.55165  1.0000
  O  Te65      1.0  0.70652  0.84965  0.60529  1.0000
  O  Te66      1.0  0.67391  0.84249  0.42940  1.0000
  O  Te67      1.0  0.70642  0.87439  0.41612  1.0000
  O  Te68      1.0  0.73905  0.88154  0.59205  1.0000
  Mg  Mg33      1.0  0.68092  0.85641  0.37265  1.0000
  Mg  Mg34      1.0  0.73213  0.86764  0.64881  1.0000
  C  Sn69      1.0  0.28755  0.14402  0.54124  1.0000
  C   C95       1.0  0.31468  0.15404  0.50306  1.0000
  C  Sn70      1.0  0.30850  0.14904  0.45413  1.0000
  C  Sn71      1.0  0.27442  0.13373  0.44313  1.0000
  C   C96       1.0  0.24729  0.12373  0.48130  1.0000
  C  Sn72      1.0  0.25347  0.12871  0.53024  1.0000
  O  Te69      1.0  0.29431  0.14926  0.58988  1.0000
  O  Te70      1.0  0.33609  0.15926  0.41659  1.0000
  O  Te71      1.0  0.26768  0.12850  0.39444  1.0000
  O  Te72      1.0  0.22588  0.11850  0.56777  1.0000
  Mg  Mg35      1.0  0.31374  0.14673  0.35614  1.0000
  Mg  Mg36      1.0  0.24813  0.13102  0.62823  1.0000
  C  Sn73      1.0  0.24439  0.85635  0.45563  1.0000
  C   C97       1.0  0.28877  0.84625  0.49135  1.0000
  C  Sn74      1.0  0.31553  0.85140  0.53919  1.0000
  C  Sn75      1.0  0.29750  0.86695  0.55158  1.0000
  C   C98       1.0  0.25313  0.87704  0.51588  1.0000
  C  Sn76      1.0  0.22636  0.87191  0.46803  1.0000
  O  Te73      1.0  0.21824  0.85096  0.40804  1.0000
  O  Te74      1.0  0.35984  0.84109  0.57426  1.0000
  O  Te75      1.0  0.32370  0.87234  0.59922  1.0000
  O  Te76      1.0  0.18206  0.88221  0.43296  1.0000
  Mg  Mg37      1.0  0.38207  0.85390  0.63411  1.0000
  Mg  Mg38      1.0  0.15973  0.86941  0.37312  1.0000
  C  Sn77      1.0  0.76324  0.13317  0.54302  1.0000
  C   C99       1.0  0.70149  0.12401  0.50757  1.0000
  C  Sn78      1.0  0.65723  0.13026  0.46350  1.0000
  C  Sn79      1.0  0.67511  0.14600  0.45465  1.0000
  C   C100      1.0  0.73685  0.15515  0.49007  1.0000
  C  Sn80      1.0  0.78113  0.14891  0.53416  1.0000
  O  Te77      1.0  0.80672  0.12668  0.58681  1.0000
  O  Te78      1.0  0.59574  0.12087  0.42863  1.0000
  O  Te79      1.0  0.63157  0.15249  0.41080  1.0000
  O  Te80      1.0  0.84260  0.15830  0.56902  1.0000
  Mg  Mg39      1.0  0.55358  0.13502  0.37464  1.0000
  Mg  Mg40      1.0  0.88485  0.14415  0.62300  1.0000
  C  Sn81      1.0  0.17937  0.35623  0.55750  1.0000
  C   C101      1.0  0.17357  0.34705  0.51523  1.0000
  C  Sn82      1.0  0.20149  0.35314  0.46924  1.0000
  C  Sn83      1.0  0.23599  0.36871  0.46543  1.0000
  C   C102      1.0  0.24180  0.37787  0.50768  1.0000
  C  Sn84      1.0  0.21388  0.37180  0.55368  1.0000
  O  Te81      1.0  0.15108  0.34991  0.60309  1.0000
  O  Te82      1.0  0.19500  0.34374  0.42750  1.0000
  O  Te83      1.0  0.26429  0.37503  0.41978  1.0000
  O  Te84      1.0  0.22038  0.38119  0.59540  1.0000
  Mg  Mg41      1.0  0.24220  0.35763  0.37361  1.0000
  Mg  Mg42      1.0  0.17326  0.36731  0.64931  1.0000
  C  Sn85      1.0  0.71314  0.63456  0.54022  1.0000
  C   C103      1.0  0.76498  0.62449  0.50557  1.0000
  C  Sn86      1.0  0.84271  0.62991  0.46779  1.0000
  C  Sn87      1.0  0.86928  0.64571  0.46459  1.0000
  C   C104      1.0  0.81748  0.65576  0.49922  1.0000
  C  Sn88      1.0  0.73970  0.65036  0.53702  1.0000
  O  Te85      1.0  0.63569  0.62889  0.57768  1.0000
  O  Te86      1.0  0.89340  0.61963  0.43357  1.0000
  O  Te87      1.0  0.94680  0.65137  0.42708  1.0000
  O  Te88      1.0  0.68905  0.66063  0.57122  1.0000
  Mg  Mg43      1.0  0.99357  0.63286  0.38928  1.0000
  Mg  Mg44      1.0  0.58894  0.64741  0.61554  1.0000
  C  Sn89      1.0  0.75490  0.36599  0.55714  1.0000
  C   C105      1.0  0.80431  0.37554  0.52104  1.0000
  C  Sn90      1.0  0.82737  0.36994  0.47366  1.0000
  C  Sn91      1.0  0.80040  0.35447  0.46212  1.0000
  C   C106      1.0  0.75100  0.34493  0.49821  1.0000
  C  Sn92      1.0  0.72793  0.35052  0.54560  1.0000
  O  Te89      1.0  0.73259  0.37183  0.60426  1.0000
  O  Te90      1.0  0.87684  0.37971  0.43819  1.0000
  O  Te91      1.0  0.82276  0.34863  0.41496  1.0000
  O  Te92      1.0  0.67846  0.34076  0.58106  1.0000
  Mg  Mg45      1.0  0.89086  0.36642  0.37926  1.0000
  Mg  Mg46      1.0  0.66435  0.35404  0.63999  1.0000
  C  Sn93      1.0  0.28819  0.63447  0.45825  1.0000
  C   C107      1.0  0.23373  0.62460  0.49235  1.0000
  C  Sn94      1.0  0.15074  0.63014  0.52852  1.0000
  C  Sn95      1.0  0.12151  0.64589  0.53064  1.0000
  C   C108      1.0  0.17594  0.65576  0.49655  1.0000
  C  Sn96      1.0  0.25896  0.65022  0.46037  1.0000
  O  Te93      1.0  0.37090  0.62868  0.42240  1.0000
  O  Te94      1.0  0.09751  0.62005  0.56221  1.0000
  O  Te95      1.0  0.03873  0.65168  0.56652  1.0000
  O  Te96      1.0  0.31216  0.66030  0.42668  1.0000
  Mg  Mg47      1.0  0.99019  0.63341  0.60419  1.0000
  Mg  Mg48      1.0  0.41943  0.64696  0.38467  1.0000
  C  Sn97      1.0  0.64853  0.78245  0.83181  1.0000
  C   C109      1.0  0.71161  0.76849  0.83616  1.0000
  C  Sn98      1.0  0.81093  0.76459  0.80401  1.0000
  C  Sn99      1.0  0.84804  0.77486  0.76675  1.0000
  C   C110      1.0  0.78499  0.78881  0.76242  1.0000
  C  Sn100     1.0  0.68563  0.79272  0.79455  1.0000
  O  Te97      1.0  0.54950  0.78612  0.86436  1.0000
  O  Te98      1.0  0.87254  0.75056  0.80907  1.0000
  O  Te99      1.0  0.94715  0.77118  0.73419  1.0000
  O  Te100     1.0  0.62406  0.80674  0.78951  1.0000
  Mg  Mg49      1.0  0.00192  0.75074  0.75589  1.0000
  Mg  Mg50      1.0  0.49472  0.80658  0.84269  1.0000
  C  Sn101     1.0  0.19722  0.22960  0.75685  1.0000
  C   C111      1.0  0.26862  0.21631  0.74957  1.0000
  C  Sn102     1.0  0.32687  0.20903  0.78943  1.0000
  C  Sn103     1.0  0.31342  0.21515  0.83759  1.0000
  C   C112      1.0  0.24205  0.22843  0.84485  1.0000
  C  Sn104     1.0  0.18377  0.23572  0.80501  1.0000
  O  Te101     1.0  0.13981  0.23669  0.71646  1.0000
  O  Te102     1.0  0.39781  0.19576  0.78123  1.0000
  O  Te103     1.0  0.37091  0.20804  0.87799  1.0000
  O  Te104     1.0  0.11285  0.24898  0.81319  1.0000
  Mg  Mg51      1.0  0.45784  0.19024  0.84807  1.0000
  Mg  Mg52      1.0  0.05273  0.25451  0.74639  1.0000
  C  Sn105     1.0  0.36538  0.78310  0.17008  1.0000
  C   C113      1.0  0.29391  0.76967  0.16391  1.0000
  C  Sn106     1.0  0.18969  0.76657  0.19457  1.0000
  C  Sn107     1.0  0.15614  0.77710  0.23216  1.0000
  C   C114      1.0  0.22757  0.79052  0.23830  1.0000
  C  Sn108     1.0  0.33183  0.79363  0.20767  1.0000
  O  Te105     1.0  0.46918  0.78597  0.13901  1.0000
  O  Te106     1.0  0.11972  0.75307  0.18770  1.0000
  O  Te107     1.0  0.05225  0.77422  0.26324  1.0000
  O  Te108     1.0  0.40177  0.80712  0.21451  1.0000
  Mg  Mg53      1.0  0.98638  0.75428  0.23934  1.0000
  Mg  Mg54      1.0  0.53507  0.80593  0.16289  1.0000
  C  Sn109     1.0  0.80829  0.23035  0.24359  1.0000
  C   C115      1.0  0.72657  0.21788  0.25057  1.0000
  C  Sn110     1.0  0.65962  0.21133  0.21076  1.0000
  C  Sn111     1.0  0.67472  0.21737  0.16296  1.0000
  C   C116      1.0  0.75642  0.22984  0.15600  1.0000
  C  Sn112     1.0  0.82339  0.23639  0.19580  1.0000
  O  Te109     1.0  0.87427  0.23672  0.28393  1.0000
  O  Te110     1.0  0.57843  0.19887  0.21865  1.0000
  O  Te111     1.0  0.60865  0.21100  0.12262  1.0000
  O  Te112     1.0  0.90456  0.24885  0.18792  1.0000
  Mg  Mg55      1.0  0.50928  0.19415  0.15203  1.0000
  Mg  Mg56      1.0  0.97380  0.25357  0.25450  1.0000
  C  Sn113     1.0  0.18707  0.28978  0.80702  1.0000
  C   C117      1.0  0.25598  0.28816  0.76333  1.0000
  C  Sn114     1.0  0.31973  0.27457  0.75252  1.0000
  C  Sn115     1.0  0.31443  0.26233  0.78606  1.0000
  C   C118      1.0  0.24553  0.26395  0.82971  1.0000
  C  Sn116     1.0  0.18176  0.27754  0.84056  1.0000
  O  Te113     1.0  0.12406  0.30347  0.81708  1.0000
  O  Te114     1.0  0.38805  0.27322  0.70861  1.0000
  O  Te115     1.0  0.37752  0.24863  0.77596  1.0000
  O  Te116     1.0  0.11346  0.27889  0.88444  1.0000
  Mg  Mg57      1.0  0.45797  0.25230  0.71138  1.0000
  Mg  Mg58      1.0  0.04346  0.29980  0.88170  1.0000
  C  Sn117     1.0  0.83674  0.71545  0.83463  1.0000
  C   C119      1.0  0.78060  0.72987  0.83722  1.0000
  C  Sn118     1.0  0.69439  0.73460  0.80062  1.0000
  C  Sn119     1.0  0.66357  0.72471  0.76062  1.0000
  C   C120      1.0  0.71967  0.71030  0.75805  1.0000
  C  Sn120     1.0  0.80591  0.70556  0.79463  1.0000
  O  Te117     1.0  0.92266  0.71096  0.87163  1.0000
  O  Te118     1.0  0.63953  0.74908  0.80400  1.0000
  O  Te119     1.0  0.57757  0.72921  0.72361  1.0000
  O  Te120     1.0  0.86074  0.69109  0.79127  1.0000
  Mg  Mg59      1.0  0.52785  0.75000  0.74454  1.0000
  Mg  Mg60      1.0  0.97238  0.69015  0.85072  1.0000
  C  Sn121     1.0  0.88082  0.28049  0.17798  1.0000
  C   C121      1.0  0.80007  0.26790  0.16997  1.0000
  C  Sn122     1.0  0.69783  0.26499  0.20176  1.0000
  C  Sn123     1.0  0.67578  0.27487  0.24238  1.0000
  C   C122      1.0  0.75648  0.28745  0.25037  1.0000
  C  Sn124     1.0  0.85877  0.29037  0.21860  1.0000
  O  Te121     1.0  0.98244  0.28318  0.14573  1.0000
  O  Te122     1.0  0.61844  0.25233  0.19301  1.0000
  O  Te123     1.0  0.57406  0.27216  0.27464  1.0000
  O  Te124     1.0  0.93812  0.30302  0.22733  1.0000
  Mg  Mg61      1.0  0.49250  0.25346  0.24729  1.0000
  Mg  Mg62      1.0  0.06403  0.30190  0.17306  1.0000
  C  Sn125     1.0  0.22133  0.70711  0.17961  1.0000
  C   C123      1.0  0.26592  0.70929  0.22788  1.0000
  C  Sn126     1.0  0.29521  0.72390  0.24550  1.0000
  C  Sn127     1.0  0.27954  0.73660  0.21424  1.0000
  C   C124      1.0  0.23495  0.73442  0.16600  1.0000
  C  Sn128     1.0  0.20565  0.71981  0.14834  1.0000
  O  Te125     1.0  0.19263  0.69241  0.16277  1.0000
  O  Te126     1.0  0.33968  0.72580  0.29389  1.0000
  O  Te127     1.0  0.30828  0.75131  0.23112  1.0000
  O  Te128     1.0  0.16118  0.71791  0.09999  1.0000
  Mg  Mg63      1.0  0.36584  0.74807  0.29987  1.0000
  Mg  Mg64      1.0  0.13493  0.69565  0.09398  1.0000
  C  Sn129     1.0  0.21179  0.23809  0.21550  1.0000
  C   C125      1.0  0.26482  0.23539  0.16915  1.0000
  C  Sn130     1.0  0.30784  0.22086  0.15611  1.0000
  C  Sn131     1.0  0.29757  0.20879  0.19008  1.0000
  C   C126      1.0  0.24454  0.21149  0.23639  1.0000
  C  Sn132     1.0  0.20151  0.22601  0.24947  1.0000
  O  Te129     1.0  0.16939  0.25270  0.22776  1.0000
  O  Te130     1.0  0.36055  0.21844  0.10956  1.0000
  O  Te131     1.0  0.34002  0.19417  0.17778  1.0000
  O  Te132     1.0  0.14881  0.22844  0.29598  1.0000
  Mg  Mg65      1.0  0.40471  0.19654  0.10999  1.0000
  Mg  Mg66      1.0  0.10456  0.25033  0.29558  1.0000
  C  Sn133     1.0  0.80559  0.76307  0.22055  1.0000
  C   C127      1.0  0.73489  0.76522  0.17712  1.0000
  C  Sn134     1.0  0.67885  0.77931  0.16719  1.0000
  C  Sn135     1.0  0.69386  0.79151  0.20137  1.0000
  C   C128      1.0  0.76454  0.78935  0.24477  1.0000
  C  Sn136     1.0  0.82060  0.77526  0.25473  1.0000
  O  Te133     1.0  0.86078  0.74889  0.22972  1.0000
  O  Te134     1.0  0.60857  0.78119  0.12352  1.0000
  O  Te135     1.0  0.63859  0.80570  0.19216  1.0000
  O  Te136     1.0  0.89086  0.77339  0.29836  1.0000
  Mg  Mg67      1.0  0.55176  0.80265  0.12758  1.0000
  Mg  Mg68      1.0  0.94777  0.75193  0.29433  1.0000
  C  Sn137     1.0  0.84616  0.22505  0.77418  1.0000
  C   C129      1.0  0.77665  0.21149  0.76772  1.0000
  C  Sn138     1.0  0.67780  0.20770  0.80006  1.0000
  C  Sn139     1.0  0.64772  0.21766  0.83968  1.0000
  C   C130      1.0  0.71719  0.23120  0.84612  1.0000
  C  Sn140     1.0  0.81609  0.23501  0.81379  1.0000
  O  Te137     1.0  0.94459  0.22861  0.74140  1.0000
  O  Te138     1.0  0.60969  0.19408  0.79286  1.0000
  O  Te139     1.0  0.54920  0.21408  0.87247  1.0000
  O  Te140     1.0  0.88416  0.24861  0.82097  1.0000
  Mg  Mg69      1.0  0.48399  0.19424  0.84732  1.0000
  Mg  Mg70      1.0  0.00982  0.24846  0.76653  1.0000
  C  Sn141     1.0  0.13136  0.77322  0.77239  1.0000
  C   C131      1.0  0.21139  0.78565  0.76249  1.0000
  C  Sn142     1.0  0.32417  0.78815  0.79014  1.0000
  C  Sn143     1.0  0.35771  0.77803  0.82846  1.0000
  C   C132      1.0  0.27772  0.76561  0.83834  1.0000
  C  Sn144     1.0  0.16490  0.76310  0.81072  1.0000
  O  Te141     1.0  0.01909  0.77094  0.74428  1.0000
  O  Te142     1.0  0.40262  0.80065  0.77956  1.0000
  O  Te143     1.0  0.47009  0.78032  0.85657  1.0000
  O  Te144     1.0  0.08649  0.75061  0.82128  1.0000
  Mg  Mg71      1.0  0.54565  0.79895  0.82811  1.0000
  Mg  Mg72      1.0  0.94348  0.75229  0.77274  1.0000
  C  Sn145     1.0  0.61566  0.72267  0.22348  1.0000
  C   C133      1.0  0.71354  0.71268  0.23784  1.0000
  C  Sn146     1.0  0.83577  0.71355  0.21664  1.0000
  C  Sn147     1.0  0.86073  0.72463  0.18033  1.0000
  C   C134      1.0  0.76290  0.73461  0.16599  1.0000
  C  Sn148     1.0  0.64062  0.73375  0.18717  1.0000
  O  Te145     1.0  0.49420  0.72160  0.24517  1.0000
  O  Te146     1.0  0.93206  0.70344  0.23158  1.0000
  O  Te147     1.0  0.98232  0.72569  0.15864  1.0000
  O  Te148     1.0  0.54438  0.74385  0.17225  1.0000
  Mg  Mg73      1.0  0.08196  0.70940  0.19125  1.0000
  Mg  Mg74      1.0  0.39447  0.73791  0.21257  1.0000
  C  Sn149     1.0  0.30525  0.26545  0.21558  1.0000
  C   C135      1.0  0.24687  0.26721  0.16941  1.0000
  C  Sn150     1.0  0.19379  0.28118  0.15605  1.0000
  C  Sn151     1.0  0.19924  0.29366  0.18952  1.0000
  C   C136      1.0  0.25761  0.29190  0.23565  1.0000
  C  Sn152     1.0  0.31070  0.27793  0.24905  1.0000
  O  Te149     1.0  0.35770  0.25138  0.22815  1.0000
  O  Te150     1.0  0.13589  0.28266  0.10969  1.0000
  O  Te151     1.0  0.14673  0.30774  0.17691  1.0000
  O  Te152     1.0  0.36859  0.27645  0.29537  1.0000
  Mg  Mg75      1.0  0.07815  0.30412  0.10955  1.0000
  Mg  Mg76      1.0  0.42642  0.25500  0.29555  1.0000
  C  Sn153     1.0  0.36700  0.72172  0.77855  1.0000
  C   C137      1.0  0.26558  0.71262  0.76068  1.0000
  C  Sn154     1.0  0.14137  0.71417  0.77976  1.0000
  C  Sn155     1.0  0.11802  0.72506  0.81747  1.0000
  C   C138      1.0  0.21940  0.73416  0.83532  1.0000
  C  Sn156     1.0  0.34365  0.73261  0.81627  1.0000
  O  Te153     1.0  0.49039  0.71998  0.75894  1.0000
  O  Te154     1.0  0.04154  0.70493  0.76130  1.0000
  O  Te155     1.0  0.99451  0.72680  0.83708  1.0000
  O  Te156     1.0  0.44344  0.74185  0.83470  1.0000
  Mg  Mg77      1.0  0.89012  0.71158  0.79986  1.0000
  Mg  Mg78      1.0  0.59487  0.73521  0.79615  1.0000
  C  Sn157     1.0  0.79202  0.28603  0.84648  1.0000
  C   C139      1.0  0.72793  0.27203  0.84861  1.0000
  C  Sn158     1.0  0.68540  0.26474  0.80548  1.0000
  C  Sn159     1.0  0.70746  0.27157  0.75925  1.0000
  C   C140      1.0  0.77153  0.28556  0.75715  1.0000
  C  Sn160     1.0  0.81408  0.29287  0.80026  1.0000
  O  Te157     1.0  0.83369  0.29312  0.89007  1.0000
  O  Te158     1.0  0.62151  0.25075  0.80853  1.0000
  O  Te159     1.0  0.66572  0.26447  0.71565  1.0000
  O  Te160     1.0  0.87795  0.30685  0.79722  1.0000
  Mg  Mg79      1.0  0.58320  0.24553  0.73886  1.0000
  Mg  Mg80      1.0  0.91636  0.31207  0.86686  1.0000
  C  Sn161     1.0  0.67186  0.93756  0.54545  1.0000
  C   C141      1.0  0.67270  0.94866  0.50901  1.0000
  C  Sn162     1.0  0.68029  0.94447  0.45941  1.0000
  C  Sn163     1.0  0.68710  0.92886  0.44594  1.0000
  C   C142      1.0  0.68623  0.91777  0.48237  1.0000
  C  Sn164     1.0  0.67867  0.92195  0.53198  1.0000
  O  Te161     1.0  0.66422  0.94200  0.59481  1.0000
  O  Te162     1.0  0.68102  0.95578  0.42364  1.0000
  O  Te163     1.0  0.69475  0.92443  0.39654  1.0000
  O  Te164     1.0  0.67792  0.91065  0.56773  1.0000
  Mg  Mg81      1.0  0.69263  0.94403  0.36132  1.0000
  Mg  Mg82      1.0  0.66624  0.92239  0.63006  1.0000
  C  Sn165     1.0  0.34043  0.06144  0.56051  1.0000
  C   C143      1.0  0.32755  0.05218  0.51864  1.0000
  C  Sn166     1.0  0.30692  0.05862  0.47247  1.0000
  C  Sn167     1.0  0.29906  0.07466  0.46805  1.0000
  C   C144      1.0  0.31196  0.08391  0.50990  1.0000
  C  Sn168     1.0  0.33257  0.07748  0.55609  1.0000
  O  Te165     1.0  0.36101  0.05476  0.60630  1.0000
  O  Te166     1.0  0.29430  0.04913  0.43115  1.0000
  O  Te167     1.0  0.27846  0.08134  0.42222  1.0000
  O  Te168     1.0  0.34521  0.08697  0.59740  1.0000
  Mg  Mg83      1.0  0.26741  0.06363  0.37677  1.0000
  Mg  Mg84      1.0  0.37217  0.07247  0.65178  1.0000
  C  Sn169     1.0  0.25399  0.92932  0.53175  1.0000
  C   C145      1.0  0.25010  0.92067  0.48834  1.0000
  C  Sn170     1.0  0.30904  0.92601  0.44581  1.0000
  C  Sn171     1.0  0.37331  0.94030  0.44671  1.0000
  C   C146      1.0  0.37720  0.94894  0.49010  1.0000
  C  Sn172     1.0  0.31826  0.94361  0.53264  1.0000
  O  Te169     1.0  0.19441  0.92376  0.57383  1.0000
  O  Te170     1.0  0.30383  0.91716  0.40284  1.0000
  O  Te171     1.0  0.43291  0.94586  0.40458  1.0000
  O  Te172     1.0  0.32347  0.95245  0.57559  1.0000
  Mg  Mg85      1.0  0.39958  0.92963  0.35500  1.0000
  Mg  Mg86      1.0  0.22781  0.93999  0.62346  1.0000
  C  Sn173     1.0  0.78119  0.06582  0.54159  1.0000
  C   C147      1.0  0.76704  0.07764  0.50800  1.0000
  C  Sn174     1.0  0.67899  0.07632  0.46888  1.0000
  C  Sn175     1.0  0.60345  0.06291  0.46322  1.0000
  C   C148      1.0  0.61760  0.05109  0.49680  1.0000
  C  Sn176     1.0  0.70565  0.05240  0.53593  1.0000
  O  Te173     1.0  0.86980  0.06738  0.58043  1.0000
  O  Te174     1.0  0.66659  0.08830  0.43576  1.0000
  O  Te175     1.0  0.51480  0.06135  0.42434  1.0000
  O  Te176     1.0  0.71806  0.04044  0.56904  1.0000
  Mg  Mg87      1.0  0.53276  0.08078  0.38884  1.0000
  Mg  Mg88      1.0  0.85180  0.04794  0.61598  1.0000
  C  Sn177     1.0  0.16203  0.43916  0.44515  1.0000
  C   C149      1.0  0.12197  0.44728  0.48673  1.0000
  C  Sn178     1.0  0.14659  0.44169  0.53381  1.0000
  C  Sn179     1.0  0.21270  0.42770  0.53945  1.0000
  C   C150      1.0  0.25275  0.41959  0.49789  1.0000
  C  Sn180     1.0  0.22814  0.42517  0.45079  1.0000
  O  Te177     1.0  0.13639  0.44497  0.39844  1.0000
  O  Te178     1.0  0.10556  0.45001  0.57482  1.0000
  O  Te179     1.0  0.23832  0.42190  0.58621  1.0000
  O  Te180     1.0  0.26916  0.41686  0.40980  1.0000
  Mg  Mg89      1.0  0.16320  0.43739  0.63077  1.0000
  Mg  Mg90      1.0  0.21163  0.42948  0.35383  1.0000
  C  Sn181     1.0  0.83098  0.56340  0.53928  1.0000
  C   C151      1.0  0.82216  0.55165  0.50437  1.0000
  C  Sn182     1.0  0.80470  0.55493  0.45458  1.0000
  C  Sn183     1.0  0.79594  0.57028  0.43934  1.0000
  C   C152      1.0  0.80478  0.58203  0.47423  1.0000
  C  Sn184     1.0  0.82222  0.57876  0.52404  1.0000
  O  Te181     1.0  0.84845  0.55986  0.58886  1.0000
  O  Te182     1.0  0.79612  0.54299  0.42037  1.0000
  O  Te183     1.0  0.77846  0.57382  0.38972  1.0000
  O  Te184     1.0  0.83083  0.59069  0.55824  1.0000
  Mg  Mg91      1.0  0.77242  0.55360  0.35703  1.0000
  Mg  Mg92      1.0  0.85459  0.58009  0.62158  1.0000
  C  Sn185     1.0  0.86252  0.43621  0.52908  1.0000
  C   C153      1.0  0.89000  0.44642  0.49148  1.0000
  C  Sn186     1.0  0.85572  0.44293  0.44281  1.0000
  C  Sn187     1.0  0.79259  0.42896  0.43149  1.0000
  C   C154      1.0  0.76512  0.41876  0.46908  1.0000
  C  Sn188     1.0  0.79939  0.42224  0.51776  1.0000
  O  Te185     1.0  0.89767  0.43993  0.57748  1.0000
  O  Te186     1.0  0.88424  0.45332  0.40584  1.0000
  O  Te187     1.0  0.75745  0.42525  0.38304  1.0000
  O  Te188     1.0  0.77088  0.41186  0.55472  1.0000
  Mg  Mg93      1.0  0.81698  0.44310  0.34554  1.0000
  Mg  Mg94      1.0  0.83803  0.42207  0.61503  1.0000
  C  Sn189     1.0  0.16227  0.56340  0.45859  1.0000
  C   C155      1.0  0.17484  0.55176  0.49291  1.0000
  C  Sn190     1.0  0.19614  0.55520  0.54262  1.0000
  C  Sn191     1.0  0.20498  0.57061  0.55837  1.0000
  C   C156      1.0  0.19239  0.58225  0.52406  1.0000
  C  Sn192     1.0  0.17111  0.57881  0.47433  1.0000
  O  Te189     1.0  0.14101  0.55969  0.40908  1.0000
  O  Te190     1.0  0.20844  0.54336  0.57625  1.0000
  O  Te191     1.0  0.22626  0.57431  0.60792  1.0000
  O  Te192     1.0  0.15879  0.59064  0.44072  1.0000
  Mg  Mg95      1.0  0.23651  0.55419  0.63972  1.0000
  Mg  Mg96      1.0  0.13065  0.57983  0.37725  1.0000
