data_new_xtal_PM
_symmetry_space_group_name_H-M    'P1'
_cell_length_a    34.775600
_cell_length_b    34.164400
_cell_length_c    13.157400
_cell_angle_alpha    90.000000
_cell_angle_beta    90.000000
_cell_angle_gamma    90.000000
_symmetry_Int_Tables_number 1

loop_
_symmetry_equiv_pos_as_xyz
'x,y,z'

loop_
_atom_site_label
_atom_site_type_symbol
_atom_site_fract_x
_atom_site_fract_y
_atom_site_fract_z
C1    C    0.464700    0.957400    0.493100
C2    C    0.430200    0.021500    0.491350
C3    C    0.465000    0.084000    0.493950
C4    C    0.327700    0.177500    0.532850
H1    H    0.402600    0.036100    0.489000
H2    H    0.312700    0.176300    0.604850
N1    N    0.314900    0.199100    0.458800
C5    C    0.964700    0.457400    0.493100
C6    C    0.930200    0.521500    0.491350
C7    C    0.965000    0.584000    0.493950
C8    C    0.827700    0.677500    0.532850
H3    H    0.902600    0.536100    0.489000
H4    H    0.812700    0.676300    0.604850
N2    N    0.814900    0.699100    0.458800
C9    C    0.535300    0.042600    0.493100
C10    C    0.569800    0.978500    0.491350
C11    C    0.535000    0.916000    0.493950
C12    C    0.672300    0.822500    0.532850
H5    H    0.597400    0.963900    0.489000
H6    H    0.687300    0.823700    0.604850
N3    N    0.685100    0.800900    0.458800
C13    C    0.035300    0.542600    0.493100
C14    C    0.069800    0.478500    0.491350
C15    C    0.035000    0.416000    0.493950
C16    C    0.172300    0.322500    0.532850
H7    H    0.097400    0.463900    0.489000
H8    H    0.187300    0.323700    0.604850
N4    N    0.185100    0.300900    0.458800
C17    C    0.464700    0.042600    0.493100
C18    C    0.430200    0.978500    0.491350
C19    C    0.465000    0.916000    0.493950
C20    C    0.327700    0.822500    0.532850
H9    H    0.402600    0.963900    0.489000
H10    H    0.312700    0.823700    0.604850
N5    N    0.314900    0.800900    0.458800
C21    C    0.964700    0.542600    0.493100
C22    C    0.930200    0.478500    0.491350
C23    C    0.965000    0.416000    0.493950
C24    C    0.827700    0.322500    0.532850
H11    H    0.902600    0.463900    0.489000
H12    H    0.812700    0.323700    0.604850
N6    N    0.814900    0.300900    0.458800
C25    C    0.535300    0.957400    0.493100
C26    C    0.569800    0.021500    0.491350
C27    C    0.535000    0.084000    0.493950
C28    C    0.672300    0.177500    0.532850
H13    H    0.597400    0.036100    0.489000
H14    H    0.687300    0.176300    0.604850
N7    N    0.685100    0.199100    0.458800
C29    C    0.035300    0.457400    0.493100
C30    C    0.069800    0.521500    0.491350
C31    C    0.035000    0.584000    0.493950
C32    C    0.172300    0.677500    0.532850
H15    H    0.097400    0.536100    0.489000
H16    H    0.187300    0.676300    0.604850
N8    N    0.185100    0.699100    0.458800
C33    C    0.500000    0.104100    0.492900
C34    C    0.500000    0.978100    0.492700
H17    H    0.500000    0.135900    0.495150
C35    C    0.000000    0.604100    0.492900
C36    C    0.000000    0.478100    0.492700
H18    H    0.000000    0.635900    0.495150
C37    C    0.500000    0.895900    0.492900
C38    C    0.500000    0.021900    0.492700
H19    H    0.500000    0.864100    0.495150
C39    C    0.000000    0.395900    0.492900
C40    C    0.000000    0.521900    0.492700
H20    H    0.000000    0.364100    0.495150
C41    C    0.464700    0.957400    0.993100
C42    C    0.430200    0.021500    0.991350
C43    C    0.465000    0.084000    0.993950
C44    C    0.327700    0.177500    0.032850
H21    H    0.402600    0.036100    0.989000
H22    H    0.312700    0.176300    0.104850
N9    N    0.314900    0.199100    0.958800
C45    C    0.964700    0.457400    0.993100
C46    C    0.930200    0.521500    0.991350
C47    C    0.965000    0.584000    0.993950
C48    C    0.827700    0.677500    0.032850
H23    H    0.902600    0.536100    0.989000
H24    H    0.812700    0.676300    0.104850
N10    N    0.814900    0.699100    0.958800
C49    C    0.535300    0.042600    0.993100
C50    C    0.569800    0.978500    0.991350
C51    C    0.535000    0.916000    0.993950
C52    C    0.672300    0.822500    0.032850
H25    H    0.597400    0.963900    0.989000
H26    H    0.687300    0.823700    0.104850
N11    N    0.685100    0.800900    0.958800
C53    C    0.035300    0.542600    0.993100
C54    C    0.069800    0.478500    0.991350
C55    C    0.035000    0.416000    0.993950
C56    C    0.172300    0.322500    0.032850
H27    H    0.097400    0.463900    0.989000
H28    H    0.187300    0.323700    0.104850
N12    N    0.185100    0.300900    0.958800
C57    C    0.464700    0.042600    0.993100
C58    C    0.430200    0.978500    0.991350
C59    C    0.465000    0.916000    0.993950
C60    C    0.327700    0.822500    0.032850
H29    H    0.402600    0.963900    0.989000
H30    H    0.312700    0.823700    0.104850
N13    N    0.314900    0.800900    0.958800
C61    C    0.964700    0.542600    0.993100
C62    C    0.930200    0.478500    0.991350
C63    C    0.965000    0.416000    0.993950
C64    C    0.827700    0.322500    0.032850
H31    H    0.902600    0.463900    0.989000
H32    H    0.812700    0.323700    0.104850
N14    N    0.814900    0.300900    0.958800
C65    C    0.535300    0.957400    0.993100
C66    C    0.569800    0.021500    0.991350
C67    C    0.535000    0.084000    0.993950
C68    C    0.672300    0.177500    0.032850
H33    H    0.597400    0.036100    0.989000
H34    H    0.687300    0.176300    0.104850
N15    N    0.685100    0.199100    0.958800
C69    C    0.035300    0.457400    0.993100
C70    C    0.069800    0.521500    0.991350
C71    C    0.035000    0.584000    0.993950
C72    C    0.172300    0.677500    0.032850
H35    H    0.097400    0.536100    0.989000
H36    H    0.187300    0.676300    0.104850
N16    N    0.185100    0.699100    0.958800
C73    C    0.500000    0.104100    0.992900
C74    C    0.500000    0.978100    0.992700
H37    H    0.500000    0.135900    0.995150
C75    C    0.000000    0.604100    0.992900
C76    C    0.000000    0.478100    0.992700
H38    H    0.000000    0.635900    0.995150
C77    C    0.500000    0.895900    0.992900
C78    C    0.500000    0.021900    0.992700
H39    H    0.500000    0.864100    0.995150
C79    C    0.000000    0.395900    0.992900
C80    C    0.000000    0.521900    0.992700
H40    H    0.000000    0.364100    0.995150
Sn81    C    0.624948    0.869437    0.102717
Sn82    C    0.616814    0.846838    0.928847
Sn83    C    0.583125    0.869992    0.919568
Sn84    C    0.591258    0.892591    0.093437
C85    C    0.637488    0.846719    0.020381
C86    C    0.570566    0.892723    0.001950
Te1    O    0.629583    0.824045    0.847053
Te2    O    0.562238    0.870304    0.828559
Te3    O    0.578490    0.915384    0.175232
Te4    O    0.645815    0.869106    0.193704
Mg1    Mg    0.616762    0.905035    0.282925
Mg2    Mg    0.591291    0.834375    0.739338
Sn87    C    0.916882    0.630003    0.919583
Sn88    C    0.908748    0.607405    0.093453
Sn89    C    0.875058    0.630559    0.102732
Sn90    C    0.883192    0.653157    0.928863
C91    C    0.929421    0.607285    0.001919
C92    C    0.862500    0.653290    0.020350
Te5    O    0.921516    0.584612    0.175247
Te6    O    0.854171    0.630871    0.193741
Te7    O    0.870423    0.675951    0.847068
Te8    O    0.937748    0.629673    0.828596
Mg3    Mg    0.908695    0.665602    0.739375
Mg4    Mg    0.883224    0.594942    0.282962
Sn93    C    0.266082    0.237219    0.055522
Sn94    C    0.266083    0.237218    0.870763
Sn95    C    0.233925    0.262779    0.870761
Sn96    C    0.233924    0.262780    0.055521
C97    C    0.281933    0.224610    0.963162
C98    C    0.218054    0.275395    0.963170
Te9    O    0.282131    0.224456    0.778921
Te10    O    0.217843    0.275521    0.778949
Te11    O    0.217876    0.275541    0.147363
Te12    O    0.282144    0.224463    0.147292
Mg5    Mg    0.250013    0.249996    0.251947
Mg6    Mg    0.249975    0.249988    0.674294
Sn99    C    0.908747    0.392592    0.093439
Sn100    C    0.916884    0.369996    0.919569
Sn101    C    0.883194    0.346841    0.928846
Sn102    C    0.875058    0.369438    0.102716
C103    C    0.929420    0.392717    0.001942
C104    C    0.862498    0.346715    0.020388
Te13    O    0.937740    0.370323    0.828505
Te14    O    0.870392    0.324071    0.847052
Te15    O    0.854201    0.369111    0.193780
Te16    O    0.921533    0.415371    0.175175
Mg7    Mg    0.883264    0.405042    0.282927
Mg8    Mg    0.908661    0.334400    0.739300
Sn105    C    0.383186    0.153159    0.928861
Sn106    C    0.375050    0.130562    0.102731
Sn107    C    0.408740    0.107408    0.093454
Sn108    C    0.416876    0.130005    0.919584
C109    C    0.362513    0.153284    0.020358
C110    C    0.429435    0.107282    0.001912
Te17    O    0.354193    0.130890    0.193795
Te18    O    0.421541    0.084638    0.175248
Te19    O    0.437732    0.129677    0.828520
Te20    O    0.370401    0.175938    0.847125
Mg9    Mg    0.408670    0.165609    0.739373
Mg10    Mg    0.383272    0.094967    0.283000
Sn111    C    0.116814    0.346841    0.428861
Sn112    C    0.124950    0.369438    0.602731
Sn113    C    0.091260    0.392592    0.593454
Sn114    C    0.083124    0.369995    0.419584
C115    C    0.137487    0.346716    0.520358
C116    C    0.070565    0.392718    0.501912
Te21    O    0.145807    0.369110    0.693795
Te22    O    0.078459    0.415362    0.675248
Te23    O    0.062268    0.370323    0.328520
Te24    O    0.129599    0.324062    0.347125
Mg11    Mg    0.091330    0.334391    0.239373
Mg12    Mg    0.116728    0.405033    0.783000
Sn117    C    0.766082    0.262781    0.370778
Sn118    C    0.766083    0.262782    0.555537
Sn119    C    0.733925    0.237221    0.555539
Sn120    C    0.733924    0.237220    0.370779
C121    C    0.781933    0.275390    0.463138
C122    C    0.718054    0.224605    0.463130
Te25    O    0.782131    0.275544    0.647379
Te26    O    0.717843    0.224479    0.647351
Te27    O    0.717876    0.224459    0.278937
Te28    O    0.782144    0.275537    0.279008
Mg13    Mg    0.750013    0.250004    0.174353
Mg14    Mg    0.749975    0.250012    0.752006
Sn123    C    0.766082    0.737219    0.870778
Sn124    C    0.766083    0.737218    0.055537
Sn125    C    0.733925    0.762779    0.055539
Sn126    C    0.733924    0.762780    0.870779
C127    C    0.781933    0.724610    0.963138
C128    C    0.718054    0.775395    0.963130
Te29    O    0.782131    0.724456    0.147379
Te30    O    0.717843    0.775521    0.147351
Te31    O    0.717876    0.775541    0.778937
Te32    O    0.782144    0.724463    0.779008
Mg15    Mg    0.750013    0.749996    0.674353
Mg16    Mg    0.749975    0.749988    0.252006
Sn129    C    0.408747    0.892592    0.093439
Sn130    C    0.416884    0.869996    0.919569
Sn131    C    0.383194    0.846841    0.928846
Sn132    C    0.375058    0.869438    0.102716
C133    C    0.429420    0.892717    0.001942
C134    C    0.362498    0.846715    0.020388
Te33    O    0.437740    0.870323    0.828505
Te34    O    0.370392    0.824071    0.847052
Te35    O    0.354201    0.869111    0.193780
Te36    O    0.421533    0.915371    0.175175
Mg17    Mg    0.383264    0.905042    0.282927
Mg18    Mg    0.408661    0.834400    0.739300
Sn135    C    0.908747    0.607408    0.593439
Sn136    C    0.916884    0.630004    0.419569
Sn137    C    0.883194    0.653159    0.428846
Sn138    C    0.875058    0.630562    0.602716
C139    C    0.929420    0.607283    0.501942
C140    C    0.862498    0.653285    0.520388
Te37    O    0.937740    0.629677    0.328505
Te38    O    0.870392    0.675929    0.347052
Te39    O    0.854201    0.630889    0.693780
Te40    O    0.921533    0.584629    0.675175
Mg19    Mg    0.883264    0.594958    0.782927
Mg20    Mg    0.908661    0.665600    0.239300
Sn141    C    0.266082    0.762781    0.370778
Sn142    C    0.266083    0.762782    0.555537
Sn143    C    0.233925    0.737221    0.555539
Sn144    C    0.233924    0.737220    0.370779
C145    C    0.281933    0.775390    0.463138
C146    C    0.218054    0.724605    0.463130
Te41    O    0.282131    0.775544    0.647379
Te42    O    0.217843    0.724479    0.647351
Te43    O    0.217876    0.724459    0.278937
Te44    O    0.282144    0.775537    0.279008
Mg21    Mg    0.250013    0.750004    0.174353
Mg22    Mg    0.249975    0.750012    0.752006
Sn147    C    0.733918    0.762781    0.555522
Sn148    C    0.733917    0.762782    0.370763
Sn149    C    0.766075    0.737221    0.370761
Sn150    C    0.766076    0.737220    0.555521
C151    C    0.718067    0.775390    0.463162
C152    C    0.781946    0.724605    0.463170
Te45    O    0.717869    0.775544    0.278921
Te46    O    0.782157    0.724479    0.278949
Te47    O    0.782124    0.724459    0.647363
Te48    O    0.717856    0.775537    0.647292
Mg23    Mg    0.749987    0.750004    0.751947
Mg24    Mg    0.750025    0.750012    0.174294
Sn153    C    0.083118    0.630003    0.919583
Sn154    C    0.091252    0.607405    0.093453
Sn155    C    0.124942    0.630559    0.102732
Sn156    C    0.116808    0.653157    0.928863
C157    C    0.070579    0.607285    0.001919
C158    C    0.137500    0.653290    0.020350
Te49    O    0.078484    0.584612    0.175247
Te50    O    0.145829    0.630871    0.193741
Te51    O    0.129577    0.675951    0.847068
Te52    O    0.062252    0.629673    0.828596
Mg25    Mg    0.091305    0.665602    0.739375
Mg26    Mg    0.116776    0.594942    0.282962
Sn159    C    0.233918    0.262781    0.555522
Sn160    C    0.233917    0.262782    0.370763
Sn161    C    0.266075    0.237221    0.370761
Sn162    C    0.266076    0.237220    0.555521
C163    C    0.218067    0.275390    0.463162
C164    C    0.281946    0.224605    0.463170
Te53    O    0.217869    0.275544    0.278921
Te54    O    0.282157    0.224479    0.278949
Te55    O    0.282124    0.224459    0.647363
Te56    O    0.217856    0.275537    0.647292
Mg27    Mg    0.249987    0.250004    0.751947
Mg28    Mg    0.250025    0.250012    0.174294
Sn165    C    0.375052    0.869437    0.602717
Sn166    C    0.383186    0.846838    0.428847
Sn167    C    0.416875    0.869992    0.419568
Sn168    C    0.408742    0.892591    0.593437
C169    C    0.362512    0.846719    0.520381
C170    C    0.429434    0.892723    0.501950
Te57    O    0.370417    0.824045    0.347053
Te58    O    0.437762    0.870304    0.328559
Te59    O    0.421510    0.915384    0.675232
Te60    O    0.354185    0.869106    0.693704
Mg29    Mg    0.383238    0.905035    0.782925
Mg30    Mg    0.408709    0.834375    0.239338
Sn171    C    0.733918    0.237219    0.870778
Sn172    C    0.733917    0.237218    0.055537
Sn173    C    0.766075    0.262779    0.055539
Sn174    C    0.766076    0.262780    0.870779
C175    C    0.718067    0.224610    0.963138
C176    C    0.781946    0.275395    0.963130
Te61    O    0.717869    0.224456    0.147379
Te62    O    0.782157    0.275521    0.147351
Te63    O    0.782124    0.275541    0.778937
Te64    O    0.717856    0.224463    0.779008
Mg31    Mg    0.749987    0.249996    0.674353
Mg32    Mg    0.750025    0.249988    0.252006
Sn177    C    0.616814    0.846841    0.428861
Sn178    C    0.624950    0.869438    0.602731
Sn179    C    0.591260    0.892592    0.593454
Sn180    C    0.583124    0.869995    0.419584
C181    C    0.637487    0.846716    0.520358
C182    C    0.570565    0.892718    0.501912
Te65    O    0.645807    0.869110    0.693795
Te66    O    0.578459    0.915362    0.675248
Te67    O    0.562268    0.870323    0.328520
Te68    O    0.629599    0.824062    0.347125
Mg33    Mg    0.591330    0.834391    0.239373
Mg34    Mg    0.616728    0.905033    0.783000
Sn183    C    0.616814    0.153159    0.928861
Sn184    C    0.624950    0.130562    0.102731
Sn185    C    0.591260    0.107408    0.093454
Sn186    C    0.583124    0.130005    0.919584
C187    C    0.637487    0.153284    0.020358
C188    C    0.570565    0.107282    0.001912
Te69    O    0.645807    0.130890    0.193795
Te70    O    0.578459    0.084638    0.175248
Te71    O    0.562268    0.129677    0.828520
Te72    O    0.629599    0.175938    0.847125
Mg35    Mg    0.591330    0.165609    0.739373
Mg36    Mg    0.616728    0.094967    0.283000
Sn189    C    0.091253    0.392592    0.093439
Sn190    C    0.083116    0.369996    0.919569
Sn191    C    0.116806    0.346841    0.928846
Sn192    C    0.124942    0.369438    0.102716
C193    C    0.070580    0.392717    0.001942
C194    C    0.137502    0.346715    0.020388
Te73    O    0.062260    0.370323    0.828505
Te74    O    0.129608    0.324071    0.847052
Te75    O    0.145799    0.369111    0.193780
Te76    O    0.078467    0.415371    0.175175
Mg37    Mg    0.116736    0.405042    0.282927
Mg38    Mg    0.091339    0.334400    0.739300
Sn195    C    0.233918    0.737219    0.055522
Sn196    C    0.233917    0.737218    0.870763
Sn197    C    0.266075    0.762779    0.870761
Sn198    C    0.266076    0.762780    0.055521
C199    C    0.218067    0.724610    0.963162
C200    C    0.281946    0.775395    0.963170
Te77    O    0.217869    0.724456    0.778921
Te78    O    0.282157    0.775521    0.778949
Te79    O    0.282124    0.775541    0.147363
Te80    O    0.217856    0.724463    0.147292
Mg39    Mg    0.249987    0.749996    0.251947
Mg40    Mg    0.250025    0.749988    0.674294
Sn201    C    0.908747    0.392592    0.593439
Sn202    C    0.916884    0.369996    0.419569
Sn203    C    0.883194    0.346841    0.428846
Sn204    C    0.875058    0.369438    0.602716
C205    C    0.929420    0.392717    0.501942
C206    C    0.862498    0.346715    0.520388
Te81    O    0.937740    0.370323    0.328505
Te82    O    0.870392    0.324071    0.347052
Te83    O    0.854201    0.369111    0.693780
Te84    O    0.921533    0.415371    0.675175
Mg41    Mg    0.883264    0.405042    0.782927
Mg42    Mg    0.908661    0.334400    0.239300
Sn207    C    0.083118    0.630003    0.419583
Sn208    C    0.091252    0.607405    0.593453
Sn209    C    0.124942    0.630559    0.602732
Sn210    C    0.116808    0.653157    0.428863
C211    C    0.070579    0.607285    0.501919
C212    C    0.137500    0.653290    0.520350
Te85    O    0.078484    0.584612    0.675247
Te86    O    0.145829    0.630871    0.693741
Te87    O    0.129577    0.675951    0.347068
Te88    O    0.062252    0.629673    0.328596
Mg43    Mg    0.091305    0.665602    0.239375
Mg44    Mg    0.116776    0.594942    0.782962
Sn213    C    0.624948    0.130563    0.602717
Sn214    C    0.616814    0.153162    0.428847
Sn215    C    0.583125    0.130008    0.419568
Sn216    C    0.591258    0.107409    0.593437
C217    C    0.637488    0.153281    0.520381
C218    C    0.570566    0.107277    0.501950
Te89    O    0.629583    0.175955    0.347053
Te90    O    0.562238    0.129696    0.328559
Te91    O    0.578490    0.084616    0.675232
Te92    O    0.645815    0.130894    0.693704
Mg45    Mg    0.616762    0.094965    0.782925
Mg46    Mg    0.591291    0.165625    0.239338
Sn219    C    0.408747    0.107408    0.593439
Sn220    C    0.416884    0.130004    0.419569
Sn221    C    0.383194    0.153159    0.428846
Sn222    C    0.375058    0.130562    0.602716
C223    C    0.429420    0.107283    0.501942
C224    C    0.362498    0.153285    0.520388
Te93    O    0.437740    0.129677    0.328505
Te94    O    0.370392    0.175929    0.347052
Te95    O    0.354201    0.130889    0.693780
Te96    O    0.421533    0.084629    0.675175
Mg47    Mg    0.383264    0.094958    0.782927
Mg48    Mg    0.408661    0.165600    0.239300

loop_
_geom_bond_atom_site_label_1
_geom_bond_atom_site_label_2
_geom_bond_distance
C1    C18    0.04048
C1    C19    0.04141
C1    C34    0.04092
C2    H1    0.03131
C2    C17    0.04048
C2    C18    0.04300
C3    C17    0.04141
C3    C33    0.04037
C3    C223    0.04327
C4    H2    0.07356
C4    N1    0.07819
C4    C224    0.04419
N1    C164    0.04190
C5    C22    0.04048
C5    C23    0.04141
C5    C36    0.04092
C6    H3    0.03131
C6    C21    0.04048
C6    C22    0.04300
C7    C21    0.04141
C7    C35    0.04037
C7    C139    0.04327
C8    H4    0.07356
C8    N2    0.07819
C8    C140    0.04419
N2    C152    0.04190
C9    C26    0.04048
C9    C27    0.04141
C9    C38    0.04092
C10    H5    0.03131
C10    C25    0.04048
C10    C26    0.04300
C11    C25    0.04141
C11    C37    0.04037
C11    C182    0.04325
C12    H6    0.07356
C12    N3    0.07819
C12    C181    0.04421
N3    C151    0.04191
C13    C30    0.04048
C13    C31    0.04141
C13    C40    0.04092
C14    H7    0.03131
C14    C29    0.04048
C14    C30    0.04300
C15    C29    0.04141
C15    C39    0.04037
C15    C116    0.04325
C16    H8    0.07356
C16    N4    0.07819
C16    C115    0.04421
N4    C163    0.04191
C17    C38    0.04092
C18    H9    0.03131
C19    C37    0.04037
C19    C170    0.04325
C20    H10    0.07356
C20    N5    0.07819
C20    C169    0.04420
N5    C145    0.04191
C21    C40    0.04092
C22    H11    0.03131
C23    C39    0.04037
C23    C205    0.04327
C24    H12    0.07356
C24    N6    0.07819
C24    C206    0.04419
N6    C121    0.04191
C25    C34    0.04092
C26    H13    0.03131
C27    C33    0.04037
C27    C218    0.04325
C28    H14    0.07356
C28    N7    0.07819
C28    C217    0.04420
N7    C122    0.04190
C29    C36    0.04092
C30    H15    0.03131
C31    C35    0.04037
C31    C211    0.04326
C32    H16    0.07356
C32    N8    0.07819
C32    C212    0.04420
N8    C146    0.04190
C33    H17    0.03188
C34    C38    0.04380
C35    H18    0.03188
C36    C40    0.04380
C37    H19    0.03188
C39    H20    0.03188
C41    C58    0.04048
C41    C59    0.04141
C41    C74    0.04092
C42    H21    0.03131
C42    C57    0.04048
C42    C58    0.04300
C43    C57    0.04141
C43    C73    0.04037
C43    C110    0.04325
C44    H22    0.07356
C44    N9    0.07819
C44    C109    0.04421
N9    C97    0.04191
C45    C62    0.04048
C45    C63    0.04141
C45    C76    0.04092
C46    H23    0.03131
C46    C61    0.04048
C46    C62    0.04300
C47    C61    0.04141
C47    C75    0.04037
C47    C91    0.04326
C48    H24    0.07356
C48    N10    0.07819
C48    C92    0.04420
N10    C127    0.04191
C49    C66    0.04048
C49    C67    0.04141
C49    C78    0.04092
C50    H25    0.03131
C50    C65    0.04048
C50    C66    0.04300
C51    C65    0.04141
C51    C77    0.04037
C51    C86    0.04325
C52    H26    0.07356
C52    N11    0.07819
C52    C85    0.04420
N11    C128    0.04190
C53    C70    0.04048
C53    C71    0.04141
C53    C80    0.04092
C54    H27    0.03131
C54    C69    0.04048
C54    C70    0.04300
C55    C69    0.04141
C55    C79    0.04037
C55    C193    0.04327
C56    H28    0.07356
C56    N12    0.07819
C56    C194    0.04419
N12    C98    0.04190
C57    C78    0.04092
C58    H29    0.03131
C59    C77    0.04037
C59    C133    0.04327
C60    H30    0.07356
C60    N13    0.07819
C60    C134    0.04419
N13    C200    0.04190
C61    C80    0.04092
C62    H31    0.03131
C63    C79    0.04037
C63    C103    0.04327
C64    H32    0.07356
C64    N14    0.07819
C64    C104    0.04419
N14    C176    0.04190
C65    C74    0.04092
C66    H33    0.03131
C67    C73    0.04037
C67    C188    0.04325
C68    H34    0.07356
C68    N15    0.07819
C68    C187    0.04421
N15    C175    0.04191
C69    C76    0.04092
C70    H35    0.03131
C71    C75    0.04037
C71    C157    0.04326
C72    H36    0.07356
C72    N16    0.07819
C72    C158    0.04420
N16    C199    0.04191
C73    H37    0.03188
C74    C78    0.04380
C75    H38    0.03188
C76    C80    0.04380
C77    H39    0.03188
C79    H40    0.03188
Sn81    Sn84    0.04192
Sn81    C85    0.08633
Sn81    Te4    0.09335
Sn82    Sn83    0.04192
Sn82    C85    0.09384
Sn82    Te1    0.08587
Sn83    C86    0.08638
Sn83    Te2    0.09338
Sn84    C86    0.09380
Sn84    Te3    0.08587
Te1    Mg2    0.11478
Te2    Mg2    0.10048
Te3    Mg1    0.11476
Te4    Mg1    0.10048
Sn87    Sn90    0.04192
Sn87    C91    0.08633
Sn87    Te8    0.09335
Sn88    Sn89    0.04192
Sn88    C91    0.09384
Sn88    Te5    0.08587
Sn89    C92    0.08638
Sn89    Te6    0.09338
Sn90    C92    0.09380
Sn90    Te7    0.08587
Te5    Mg4    0.11478
Te6    Mg4    0.10048
Te7    Mg3    0.11476
Te8    Mg3    0.10048
Sn93    Sn96    0.04108
Sn93    C97    0.09455
Sn93    Te12    0.09403
Sn94    Sn95    0.04108
Sn94    C97    0.09459
Sn94    Te9    0.09410
Sn95    C98    0.09461
Sn95    Te10    0.09408
Sn96    C98    0.09455
Sn96    Te11    0.09410
Te9    Mg6    0.11239
Te10    Mg6    0.11241
Te11    Mg5    0.11235
Te12    Mg5    0.11241
Sn99    Sn102    0.04192
Sn99    C103    0.09380
Sn99    Te16    0.08581
Sn100    Sn101    0.04192
Sn100    C103    0.08636
Sn100    Te13    0.09342
Sn101    C104    0.09385
Sn101    Te14    0.08586
Sn102    C104    0.08632
Sn102    Te15    0.09342
Te13    Mg8    0.10047
Te14    Mg8    0.11481
Te15    Mg7    0.10041
Te16    Mg7    0.11481
Sn105    Sn108    0.04192
Sn105    C109    0.09380
Sn105    Te20    0.08581
Sn106    Sn107    0.04192
Sn106    C109    0.08636
Sn106    Te17    0.09342
Sn107    C110    0.09385
Sn107    Te18    0.08586
Sn108    C110    0.08632
Sn108    Te19    0.09342
Te17    Mg10    0.10047
Te18    Mg10    0.11481
Te19    Mg9    0.10041
Te20    Mg9    0.11481
Sn111    Sn114    0.04192
Sn111    C115    0.09380
Sn111    Te24    0.08581
Sn112    Sn113    0.04192
Sn112    C115    0.08636
Sn112    Te21    0.09342
Sn113    C116    0.09385
Sn113    Te22    0.08586
Sn114    C116    0.08632
Sn114    Te23    0.09342
Te21    Mg12    0.10047
Te22    Mg12    0.11481
Te23    Mg11    0.10041
Te24    Mg11    0.11481
Sn117    Sn120    0.04108
Sn117    C121    0.09455
Sn117    Te28    0.09403
Sn118    Sn119    0.04108
Sn118    C121    0.09459
Sn118    Te25    0.09410
Sn119    C122    0.09461
Sn119    Te26    0.09408
Sn120    C122    0.09455
Sn120    Te27    0.09410
Te25    Mg14    0.11239
Te26    Mg14    0.11241
Te27    Mg13    0.11235
Te28    Mg13    0.11241
Sn123    Sn126    0.04108
Sn123    C127    0.09455
Sn123    Te32    0.09403
Sn124    Sn125    0.04108
Sn124    C127    0.09459
Sn124    Te29    0.09410
Sn125    C128    0.09461
Sn125    Te30    0.09408
Sn126    C128    0.09455
Sn126    Te31    0.09410
Te29    Mg16    0.11239
Te30    Mg16    0.11241
Te31    Mg15    0.11235
Te32    Mg15    0.11241
Sn129    Sn132    0.04192
Sn129    C133    0.09380
Sn129    Te36    0.08581
Sn130    Sn131    0.04192
Sn130    C133    0.08636
Sn130    Te33    0.09342
Sn131    C134    0.09385
Sn131    Te34    0.08586
Sn132    C134    0.08632
Sn132    Te35    0.09342
Te33    Mg18    0.10047
Te34    Mg18    0.11481
Te35    Mg17    0.10041
Te36    Mg17    0.11481
Sn135    Sn138    0.04192
Sn135    C139    0.09380
Sn135    Te40    0.08581
Sn136    Sn137    0.04192
Sn136    C139    0.08636
Sn136    Te37    0.09342
Sn137    C140    0.09385
Sn137    Te38    0.08586
Sn138    C140    0.08632
Sn138    Te39    0.09342
Te37    Mg20    0.10047
Te38    Mg20    0.11481
Te39    Mg19    0.10041
Te40    Mg19    0.11481
Sn141    Sn144    0.04108
Sn141    C145    0.09455
Sn141    Te44    0.09403
Sn142    Sn143    0.04108
Sn142    C145    0.09459
Sn142    Te41    0.09410
Sn143    C146    0.09461
Sn143    Te42    0.09408
Sn144    C146    0.09455
Sn144    Te43    0.09410
Te41    Mg22    0.11239
Te42    Mg22    0.11241
Te43    Mg21    0.11235
Te44    Mg21    0.11241
Sn147    Sn150    0.04108
Sn147    C151    0.09455
Sn147    Te48    0.09403
Sn148    Sn149    0.04108
Sn148    C151    0.09459
Sn148    Te45    0.09410
Sn149    C152    0.09461
Sn149    Te46    0.09408
Sn150    C152    0.09455
Sn150    Te47    0.09410
Te45    Mg24    0.11239
Te46    Mg24    0.11241
Te47    Mg23    0.11235
Te48    Mg23    0.11241
Sn153    Sn156    0.04192
Sn153    C157    0.08633
Sn153    Te52    0.09335
Sn154    Sn155    0.04192
Sn154    C157    0.09384
Sn154    Te49    0.08587
Sn155    C158    0.08638
Sn155    Te50    0.09338
Sn156    C158    0.09380
Sn156    Te51    0.08587
Te49    Mg26    0.11478
Te50    Mg26    0.10048
Te51    Mg25    0.11476
Te52    Mg25    0.10048
Sn159    Sn162    0.04108
Sn159    C163    0.09455
Sn159    Te56    0.09403
Sn160    Sn161    0.04108
Sn160    C163    0.09459
Sn160    Te53    0.09410
Sn161    C164    0.09461
Sn161    Te54    0.09408
Sn162    C164    0.09455
Sn162    Te55    0.09410
Te53    Mg28    0.11239
Te54    Mg28    0.11241
Te55    Mg27    0.11235
Te56    Mg27    0.11241
Sn165    Sn168    0.04192
Sn165    C169    0.08633
Sn165    Te60    0.09335
Sn166    Sn167    0.04192
Sn166    C169    0.09384
Sn166    Te57    0.08587
Sn167    C170    0.08638
Sn167    Te58    0.09338
Sn168    C170    0.09380
Sn168    Te59    0.08587
Te57    Mg30    0.11478
Te58    Mg30    0.10048
Te59    Mg29    0.11476
Te60    Mg29    0.10048
Sn171    Sn174    0.04108
Sn171    C175    0.09455
Sn171    Te64    0.09403
Sn172    Sn173    0.04108
Sn172    C175    0.09459
Sn172    Te61    0.09410
Sn173    C176    0.09461
Sn173    Te62    0.09408
Sn174    C176    0.09455
Sn174    Te63    0.09410
Te61    Mg32    0.11239
Te62    Mg32    0.11241
Te63    Mg31    0.11235
Te64    Mg31    0.11241
Sn177    Sn180    0.04192
Sn177    C181    0.09380
Sn177    Te68    0.08581
Sn178    Sn179    0.04192
Sn178    C181    0.08636
Sn178    Te65    0.09342
Sn179    C182    0.09385
Sn179    Te66    0.08586
Sn180    C182    0.08632
Sn180    Te67    0.09342
Te65    Mg34    0.10047
Te66    Mg34    0.11481
Te67    Mg33    0.10041
Te68    Mg33    0.11481
Sn183    Sn186    0.04192
Sn183    C187    0.09380
Sn183    Te72    0.08581
Sn184    Sn185    0.04192
Sn184    C187    0.08636
Sn184    Te69    0.09342
Sn185    C188    0.09385
Sn185    Te70    0.08586
Sn186    C188    0.08632
Sn186    Te71    0.09342
Te69    Mg36    0.10047
Te70    Mg36    0.11481
Te71    Mg35    0.10041
Te72    Mg35    0.11481
Sn189    Sn192    0.04192
Sn189    C193    0.09380
Sn189    Te76    0.08581
Sn190    Sn191    0.04192
Sn190    C193    0.08636
Sn190    Te73    0.09342
Sn191    C194    0.09385
Sn191    Te74    0.08586
Sn192    C194    0.08632
Sn192    Te75    0.09342
Te73    Mg38    0.10047
Te74    Mg38    0.11481
Te75    Mg37    0.10041
Te76    Mg37    0.11481
Sn195    Sn198    0.04108
Sn195    C199    0.09455
Sn195    Te80    0.09403
Sn196    Sn197    0.04108
Sn196    C199    0.09459
Sn196    Te77    0.09410
Sn197    C200    0.09461
Sn197    Te78    0.09408
Sn198    C200    0.09455
Sn198    Te79    0.09410
Te77    Mg40    0.11239
Te78    Mg40    0.11241
Te79    Mg39    0.11235
Te80    Mg39    0.11241
Sn201    Sn204    0.04192
Sn201    C205    0.09380
Sn201    Te84    0.08581
Sn202    Sn203    0.04192
Sn202    C205    0.08636
Sn202    Te81    0.09342
Sn203    C206    0.09385
Sn203    Te82    0.08586
Sn204    C206    0.08632
Sn204    Te83    0.09342
Te81    Mg42    0.10047
Te82    Mg42    0.11481
Te83    Mg41    0.10041
Te84    Mg41    0.11481
Sn207    Sn210    0.04192
Sn207    C211    0.08633
Sn207    Te88    0.09335
Sn208    Sn209    0.04192
Sn208    C211    0.09384
Sn208    Te85    0.08587
Sn209    C212    0.08638
Sn209    Te86    0.09338
Sn210    C212    0.09380
Sn210    Te87    0.08587
Te85    Mg44    0.11478
Te86    Mg44    0.10048
Te87    Mg43    0.11476
Te88    Mg43    0.10048
Sn213    Sn216    0.04192
Sn213    C217    0.08633
Sn213    Te92    0.09335
Sn214    Sn215    0.04192
Sn214    C217    0.09384
Sn214    Te89    0.08587
Sn215    C218    0.08638
Sn215    Te90    0.09338
Sn216    C218    0.09380
Sn216    Te91    0.08587
Te89    Mg46    0.11478
Te90    Mg46    0.10048
Te91    Mg45    0.11476
Te92    Mg45    0.10048
Sn219    Sn222    0.04192
Sn219    C223    0.09380
Sn219    Te96    0.08581
Sn220    Sn221    0.04192
Sn220    C223    0.08636
Sn220    Te93    0.09342
Sn221    C224    0.09385
Sn221    Te94    0.08586
Sn222    C224    0.08632
Sn222    Te95    0.09342
Te93    Mg48    0.10047
Te94    Mg48    0.11481
Te95    Mg47    0.10041
Te96    Mg47    0.11481
