data_new_xtal_PM
_symmetry_space_group_name_H-M    'P1'
_cell_length_a    24.891000
_cell_length_b    27.182200
_cell_length_c    32.528400
_cell_angle_alpha    90.000000
_cell_angle_beta    90.000000
_cell_angle_gamma    90.000000
_symmetry_Int_Tables_number 1

loop_
_symmetry_equiv_pos_as_xyz
'x,y,z'

loop_
_atom_site_label
_atom_site_type_symbol
_atom_site_fract_x
_atom_site_fract_y
_atom_site_fract_z
H1    H    0.500000    0.750470    0.705920
C1    C    0.500000    0.553650    0.461680
C2    C    0.500000    0.606820    0.460660
C3    C    0.500000    0.758920    0.326590
N1    N    0.500000    0.803990    0.339830
C4    C    0.500000    0.525240    0.573700
H2    H    0.500000    0.460600    0.603250
H3    H    0.000000    0.250470    0.705920
C5    C    0.000000    0.053650    0.461680
C6    C    0.000000    0.106820    0.460660
C7    C    0.000000    0.258920    0.326590
N2    N    0.000000    0.303990    0.339830
C8    C    0.000000    0.025240    0.573700
H4    H    0.000000    0.960600    0.603250
H5    H    0.500000    0.249530    0.705920
C9    C    0.500000    0.446350    0.461680
C10    C    0.500000    0.393180    0.460660
C11    C    0.500000    0.241080    0.326590
N3    N    0.500000    0.196010    0.339830
C12    C    0.500000    0.474760    0.573700
H6    H    0.500000    0.539400    0.603250
H7    H    0.000000    0.749530    0.705920
C13    C    0.000000    0.946350    0.461680
C14    C    0.000000    0.893180    0.460660
C15    C    0.000000    0.741080    0.326590
N4    N    0.000000    0.696010    0.339830
C16    C    0.000000    0.974760    0.573700
H8    H    0.000000    0.039400    0.603250
H9    H    0.500000    0.750470    0.294080
C17    C    0.500000    0.553650    0.538320
C18    C    0.500000    0.606820    0.539340
C19    C    0.500000    0.758920    0.673410
N5    N    0.500000    0.803990    0.660170
C20    C    0.500000    0.525240    0.426300
H10    H    0.500000    0.460600    0.396750
H11    H    0.000000    0.250470    0.294080
C21    C    0.000000    0.053650    0.538320
C22    C    0.000000    0.106820    0.539340
C23    C    0.000000    0.258920    0.673410
N6    N    0.000000    0.303990    0.660170
C24    C    0.000000    0.025240    0.426300
H12    H    0.000000    0.960600    0.396750
H13    H    0.500000    0.249530    0.294080
C25    C    0.500000    0.446350    0.538320
C26    C    0.500000    0.393180    0.539340
C27    C    0.500000    0.241080    0.673410
N7    N    0.500000    0.196010    0.660170
C28    C    0.500000    0.474760    0.426300
H14    H    0.500000    0.539400    0.396750
H15    H    0.000000    0.749530    0.294080
C29    C    0.000000    0.946350    0.538320
C30    C    0.000000    0.893180    0.539340
C31    C    0.000000    0.741080    0.673410
N8    N    0.000000    0.696010    0.660170
C32    C    0.000000    0.974760    0.426300
H16    H    0.000000    0.039400    0.396750
H17    H    0.230350    0.000000    0.240820
C33    C    0.049650    0.000000    0.954760
C34    C    0.095350    0.000000    0.978950
C35    C    0.236800    0.000000    0.792080
N9    N    0.284860    0.000000    0.807680
C36    C    0.051180    0.000000    0.090000
H18    H    0.133870    0.000000    0.967940
H19    H    0.730350    0.500000    0.240820
C37    C    0.549650    0.500000    0.954760
C38    C    0.595350    0.500000    0.978950
C39    C    0.736800    0.500000    0.792080
N10    N    0.784860    0.500000    0.807680
C40    C    0.551180    0.500000    0.090000
H20    H    0.633870    0.500000    0.967940
H21    H    0.769650    0.000000    0.240820
C41    C    0.950350    0.000000    0.954760
C42    C    0.904650    0.000000    0.978950
C43    C    0.763200    0.000000    0.792080
N11    N    0.715140    0.000000    0.807680
C44    C    0.948820    0.000000    0.090000
H22    H    0.866130    0.000000    0.967940
H23    H    0.269650    0.500000    0.240820
C45    C    0.450350    0.500000    0.954760
C46    C    0.404650    0.500000    0.978950
C47    C    0.263200    0.500000    0.792080
N12    N    0.215140    0.500000    0.807680
C48    C    0.448820    0.500000    0.090000
H24    H    0.366130    0.500000    0.967940
H25    H    0.769650    0.000000    0.759180
C49    C    0.950350    0.000000    0.045240
C50    C    0.904650    0.000000    0.021050
C51    C    0.763200    0.000000    0.207920
N13    N    0.715140    0.000000    0.192320
C52    C    0.948820    0.000000    0.910000
H26    H    0.866130    0.000000    0.032060
H27    H    0.269650    0.500000    0.759180
C53    C    0.450350    0.500000    0.045240
C54    C    0.404650    0.500000    0.021050
C55    C    0.263200    0.500000    0.207920
N14    N    0.215140    0.500000    0.192320
C56    C    0.448820    0.500000    0.910000
H28    H    0.366130    0.500000    0.032060
H29    H    0.230350    0.000000    0.759180
C57    C    0.049650    0.000000    0.045240
C58    C    0.095350    0.000000    0.021050
C59    C    0.236800    0.000000    0.207920
N15    N    0.284860    0.000000    0.192320
C60    C    0.051180    0.000000    0.910000
H30    H    0.133870    0.000000    0.032060
H31    H    0.730350    0.500000    0.759180
C61    C    0.549650    0.500000    0.045240
C62    C    0.595350    0.500000    0.021050
C63    C    0.736800    0.500000    0.207920
N16    N    0.784860    0.500000    0.192320
C64    C    0.551180    0.500000    0.910000
H32    H    0.633870    0.500000    0.032060
C65    C    0.500000    0.000000    0.734890
C66    C    0.000000    0.500000    0.734890
C67    C    0.500000    0.000000    0.265110
C68    C    0.000000    0.500000    0.265110
C69    C    0.000000    0.000000    0.022810
C70    C    0.000000    0.000000    0.891260
H33    H    0.000000    0.000000    0.859890
C71    C    0.500000    0.500000    0.022810
C72    C    0.500000    0.500000    0.891260
H34    H    0.500000    0.500000    0.859890
C73    C    0.000000    0.000000    0.977190
C74    C    0.000000    0.000000    0.108740
H35    H    0.000000    0.000000    0.140110
C75    C    0.500000    0.500000    0.977190
C76    C    0.500000    0.500000    0.108740
H36    H    0.500000    0.500000    0.140110
C77    C    0.500000    0.472990    0.500000
C78    C    0.500000    0.371570    0.500000
H37    H    0.500000    0.334940    0.500000
C79    C    0.000000    0.972990    0.500000
C80    C    0.000000    0.871570    0.500000
H38    H    0.000000    0.834940    0.500000
C81    C    0.500000    0.527010    0.500000
C82    C    0.500000    0.628430    0.500000
H39    H    0.500000    0.665060    0.500000
C83    C    0.000000    0.027010    0.500000
C84    C    0.000000    0.128430    0.500000
H40    H    0.000000    0.165060    0.500000
Sn85    C    0.933738    0.499997    0.799469
Sn86    C    0.898271    0.499997    0.729838
Sn87    C    0.845158    0.500000    0.745679
Sn88    C    0.880625    0.500000    0.815310
C89    C    0.942193    0.500005    0.756851
C90    C    0.836685    0.500001    0.788324
Te1    O    0.907149    0.500001    0.687318
Te2    O    0.801004    0.500042    0.718990
Te3    O    0.871747    0.499996    0.857830
Te4    O    0.977874    0.499984    0.826145
Mg1    Mg    0.944902    0.499994    0.881413
Mg2    Mg    0.833977    0.500032    0.663722
Sn91    C    0.093326    0.000003    0.835215
Sn92    C    0.156845    0.000003    0.891982
Sn93    C    0.200146    1.000000    0.863612
Sn94    C    0.136626    1.000000    0.806844
C95    C    0.103731    0.999996    0.877579
C96    C    0.189746    0.999999    0.821217
Te5    O    0.166809    0.999999    0.934361
Te6    O    0.253338    0.999958    0.877650
Te7    O    0.126662    0.000004    0.764466
Te8    O    0.040155    0.000016    0.821184
Mg3    Mg    0.047434    0.000006    0.760685
Mg4    Mg    0.246059    0.999968    0.938149
Sn97    C    0.343158    0.499997    0.891977
Sn98    C    0.406681    0.499997    0.835211
Sn99    C    0.363381    0.500000    0.806840
Sn100    C    0.299859    0.500000    0.863606
C101    C    0.396260    0.500004    0.877587
C102    C    0.310240    0.500001    0.821230
Te9    O    0.459868    0.500001    0.821153
Te10    O    0.373319    0.500042    0.764460
Te11    O    0.246672    0.499996    0.877664
Te12    O    0.333228    0.499984    0.934338
Mg5    Mg    0.253987    0.499994    0.938149
Mg6    Mg    0.452560    0.500032    0.760650
Sn103    C    0.499997    0.732751    0.599981
Sn104    C    0.499997    0.668490    0.651956
Sn105    C    0.500000    0.632186    0.620613
Sn106    C    0.500000    0.696447    0.568637
C107    C    0.500005    0.718525    0.641416
C108    C    0.500001    0.646411    0.579148
Te13    O    0.500001    0.654665    0.693436
Te14    O    0.500046    0.582120    0.630785
Te15    O    0.499996    0.710272    0.527157
Te16    O    0.499983    0.782796    0.589815
Mg7    Mg    0.499994    0.782927    0.529060
Mg8    Mg    0.500035    0.581989    0.691540
Sn109    C    0.345152    0.000003    0.745688
Sn110    C    0.380619    0.000003    0.815319
Sn111    C    0.433732    1.000000    0.799478
Sn112    C    0.398265    1.000000    0.729847
C113    C    0.336697    0.999995    0.788306
C114    C    0.442205    0.999999    0.756833
Te17    O    0.371741    0.999999    0.857838
Te18    O    0.477885    0.999958    0.826167
Te19    O    0.407143    0.000004    0.687327
Te20    O    0.301016    0.000015    0.719012
Mg9    Mg    0.333988    0.000006    0.663744
Mg10    Mg    0.444913    0.999968    0.881435
Sn115    C    0.499996    0.060273    0.670141
Sn116    C    0.499996    0.093647    0.739476
Sn117    C    0.500001    0.142075    0.723197
Sn118    C    0.500000    0.108701    0.653863
C119    C    0.500005    0.053081    0.712827
C120    C    0.500001    0.149284    0.680485
Te21    O    0.500001    0.086066    0.782066
Te22    O    0.500046    0.182849    0.749521
Te23    O    0.499996    0.116282    0.611273
Te24    O    0.499983    0.019515    0.643831
Mg11    Mg    0.499994    0.048992    0.588294
Mg12    Mg    0.500035    0.153372    0.805058
Sn121    C    0.000003    0.831506    0.651951
Sn122    C    0.000003    0.767243    0.599978
Sn123    C    1.000000    0.803545    0.568633
Sn124    C    1.000000    0.867809    0.620606
C125    C    0.999995    0.781484    0.641423
C126    C    0.999999    0.853603    0.579159
Te25    O    0.999999    0.717179    0.589786
Te26    O    0.999954    0.789743    0.527150
Te27    O    0.000004    0.917872    0.630798
Te28    O    0.000017    0.845299    0.693416
Mg13    Mg    0.000006    0.917969    0.691542
Mg14    Mg    0.999965    0.717074    0.529025
Sn127    C    0.499996    0.939727    0.670141
Sn128    C    0.499996    0.906353    0.739476
Sn129    C    0.500001    0.857925    0.723197
Sn130    C    0.500000    0.891299    0.653863
C131    C    0.500005    0.946919    0.712827
C132    C    0.500001    0.850716    0.680485
Te29    O    0.500001    0.913934    0.782066
Te30    O    0.500046    0.817151    0.749521
Te31    O    0.499996    0.883718    0.611273
Te32    O    0.499983    0.980485    0.643831
Mg15    Mg    0.499994    0.951008    0.588294
Mg16    Mg    0.500035    0.846628    0.805058
Sn133    C    0.093326    0.000003    0.164785
Sn134    C    0.156845    0.000003    0.108018
Sn135    C    0.200146    1.000000    0.136388
Sn136    C    0.136626    1.000000    0.193156
C137    C    0.103731    0.999996    0.122421
C138    C    0.189746    0.999999    0.178783
Te33    O    0.166809    0.999999    0.065639
Te34    O    0.253338    0.999958    0.122350
Te35    O    0.126662    0.000004    0.235534
Te36    O    0.040155    0.000016    0.178816
Mg17    Mg    0.047434    0.000006    0.239315
Mg18    Mg    0.246059    0.999968    0.061851
Sn139    C    0.433738    0.000003    0.200531
Sn140    C    0.398271    0.000003    0.270162
Sn141    C    0.345158    1.000000    0.254321
Sn142    C    0.380625    1.000000    0.184690
C143    C    0.442193    0.999995    0.243149
C144    C    0.336685    0.999999    0.211676
Te37    O    0.407149    0.999999    0.312682
Te38    O    0.301004    0.999958    0.281010
Te39    O    0.371747    0.000004    0.142170
Te40    O    0.477874    0.000016    0.173855
Mg19    Mg    0.444902    0.000006    0.118587
Mg20    Mg    0.333977    0.999968    0.336278
Sn145    C    0.863368    0.000003    0.193160
Sn146    C    0.799846    0.000003    0.136395
Sn147    C    0.843145    1.000000    0.108023
Sn148    C    0.906668    1.000000    0.164789
C149    C    0.810267    0.999995    0.178770
C150    C    0.896286    0.999999    0.122413
Te41    O    0.746658    0.999999    0.122337
Te42    O    0.833207    0.999958    0.065644
Te43    O    0.959855    0.000004    0.178847
Te44    O    0.873300    0.000015    0.235522
Mg21    Mg    0.952540    0.000006    0.239332
Mg22    Mg    0.753967    0.999968    0.061833
Sn151    C    0.898272    0.500003    0.270156
Sn152    C    0.933742    0.500003    0.200526
Sn153    C    0.880630    0.500000    0.184684
Sn154    C    0.845160    0.500000    0.254314
C155    C    0.942188    0.499995    0.243158
C156    C    0.836677    0.499999    0.211692
Te45    O    0.977883    0.499999    0.173820
Te46    O    0.871727    0.499958    0.142170
Te47    O    0.801020    0.500004    0.281020
Te48    O    0.907174    0.500016    0.312651
Mg23    Mg    0.834020    0.500006    0.336266
Mg24    Mg    0.944881    0.499968    0.118555
Sn157    C    0.066262    0.499997    0.200531
Sn158    C    0.101729    0.499997    0.270162
Sn159    C    0.154842    0.500000    0.254321
Sn160    C    0.119375    0.500000    0.184690
C161    C    0.057807    0.500005    0.243149
C162    C    0.163315    0.500001    0.211676
Te49    O    0.092851    0.500001    0.312682
Te50    O    0.198996    0.500042    0.281010
Te51    O    0.128253    0.499996    0.142170
Te52    O    0.022126    0.499984    0.173855
Mg25    Mg    0.055098    0.499994    0.118587
Mg26    Mg    0.166023    0.500032    0.336278
Sn163    C    0.999997    0.357919    0.276811
Sn164    C    0.999997    0.391293    0.346146
Sn165    C    0.000000    0.439722    0.329868
Sn166    C    0.000000    0.406348    0.260533
C167    C    0.000005    0.350727    0.319497
C168    C    0.000001    0.446930    0.287155
Te53    O    0.000001    0.383713    0.388736
Te54    O    0.000046    0.480496    0.356191
Te55    O    0.999996    0.413929    0.217943
Te56    O    0.999983    0.317161    0.250501
Mg27    Mg    0.999994    0.346639    0.194964
Mg28    Mg    0.000035    0.451018    0.411728
Sn169    C    0.999996    0.803557    0.431367
Sn170    C    0.999996    0.867821    0.379394
Sn171    C    0.000001    0.831518    0.348050
Sn172    C    0.000001    0.767255    0.400023
C173    C    0.000005    0.853580    0.420839
C174    C    0.000001    0.781460    0.358576
Te57    O    0.000001    0.917884    0.369202
Te58    O    0.000046    0.845320    0.306567
Te59    O    0.999996    0.717191    0.410215
Te60    O    0.999983    0.789764    0.472833
Mg29    Mg    0.999994    0.717095    0.470959
Mg30    Mg    0.000035    0.917989    0.308441
Sn175    C    0.499996    0.093646    0.260530
Sn176    C    0.499996    0.060268    0.329864
Sn177    C    0.500000    0.108696    0.346143
Sn178    C    0.500001    0.142074    0.276810
C179    C    0.500005    0.053085    0.287164
C180    C    0.500001    0.149291    0.319500
Te61    O    0.500001    0.019506    0.356204
Te62    O    0.500046    0.116300    0.388728
Te63    O    0.499996    0.182836    0.250469
Te64    O    0.499983    0.086043    0.217964
Mg31    Mg    0.499994    0.153331    0.194954
Mg32    Mg    0.500035    0.049012    0.411738
Sn181    C    0.000004    0.560273    0.329859
Sn182    C    0.000004    0.593647    0.260524
Sn183    C    0.999999    0.642075    0.276803
Sn184    C    1.000000    0.608701    0.346137
C185    C    0.999995    0.553081    0.287173
C186    C    0.999999    0.649284    0.319515
Te65    O    0.999999    0.586066    0.217934
Te66    O    0.999954    0.682849    0.250479
Te67    O    0.000004    0.616282    0.388727
Te68    O    0.000017    0.519515    0.356169
Mg33    Mg    0.000006    0.548992    0.411706
Mg34    Mg    0.999965    0.653372    0.194942
Sn187    C    0.601728    0.000003    0.729844
Sn188    C    0.566258    0.000003    0.799474
Sn189    C    0.619370    1.000000    0.815316
Sn190    C    0.654840    1.000000    0.745686
C191    C    0.557812    0.999995    0.756842
C192    C    0.663323    0.999999    0.788308
Te69    O    0.522117    0.999999    0.826180
Te70    O    0.628273    0.999958    0.857830
Te71    O    0.698980    0.000004    0.718980
Te72    O    0.592826    0.000016    0.687349
Mg35    Mg    0.665980    0.000006    0.663734
Mg36    Mg    0.555119    0.999968    0.881445
Sn193    C    0.999997    0.357919    0.723189
Sn194    C    0.999997    0.391293    0.653854
Sn195    C    0.000000    0.439722    0.670132
Sn196    C    0.000000    0.406348    0.739467
C197    C    0.000005    0.350727    0.680503
C198    C    0.000001    0.446930    0.712845
Te73    O    0.000001    0.383713    0.611264
Te74    O    0.000046    0.480496    0.643809
Te75    O    0.999996    0.413929    0.782057
Te76    O    0.999983    0.317161    0.749499
Mg37    Mg    0.999994    0.346639    0.805036
Mg38    Mg    0.000035    0.451018    0.588272
Sn199    C    0.636632    0.499997    0.193160
Sn200    C    0.700154    0.499997    0.136395
Sn201    C    0.656855    0.500000    0.108023
Sn202    C    0.593332    0.500000    0.164789
C203    C    0.689733    0.500005    0.178770
C204    C    0.603714    0.500001    0.122413
Te77    O    0.753342    0.500001    0.122337
Te78    O    0.666793    0.500042    0.065644
Te79    O    0.540145    0.499996    0.178847
Te80    O    0.626700    0.499985    0.235522
Mg39    Mg    0.547460    0.499994    0.239332
Mg40    Mg    0.746033    0.500032    0.061833
Sn205    C    0.999997    0.168494    0.651951
Sn206    C    0.999997    0.232757    0.599978
Sn207    C    0.000000    0.196455    0.568633
Sn208    C    0.000000    0.132191    0.620606
C209    C    0.000005    0.218516    0.641423
C210    C    0.000001    0.146397    0.579159
Te81    O    0.000001    0.282821    0.589786
Te82    O    0.000046    0.210257    0.527150
Te83    O    0.999996    0.082128    0.630798
Te84    O    0.999983    0.154701    0.693416
Mg41    Mg    0.999994    0.082031    0.691542
Mg42    Mg    0.000035    0.282926    0.529025
Sn211    C    0.499996    0.367814    0.620603
Sn212    C    0.499996    0.303553    0.568627
Sn213    C    0.500001    0.267250    0.599971
Sn214    C    0.500001    0.331511    0.651946
C215    C    0.500005    0.353588    0.579168
C216    C    0.500001    0.281474    0.641436
Te85    O    0.500001    0.289728    0.527147
Te86    O    0.500046    0.217183    0.589799
Te87    O    0.499996    0.345336    0.693426
Te88    O    0.499983    0.417859    0.630768
Mg43    Mg    0.499994    0.417991    0.691523
Mg44    Mg    0.500035    0.217052    0.529044
Sn217    C    0.566262    0.000003    0.200531
Sn218    C    0.601729    0.000003    0.270162
Sn219    C    0.654842    1.000000    0.254321
Sn220    C    0.619375    1.000000    0.184690
C221    C    0.557807    0.999995    0.243149
C222    C    0.663315    0.999999    0.211676
Te89    O    0.592851    0.999999    0.312682
Te90    O    0.698996    0.999958    0.281010
Te91    O    0.628253    0.000004    0.142170
Te92    O    0.522126    0.000016    0.173855
Mg45    Mg    0.555098    0.000006    0.118587
Mg46    Mg    0.666023    0.999968    0.336278
Sn223    C    0.499997    0.891292    0.346140
Sn224    C    0.499997    0.857915    0.276806
Sn225    C    0.500000    0.906343    0.260527
Sn226    C    0.500000    0.939720    0.329860
C227    C    0.500005    0.850732    0.319506
C228    C    0.500001    0.946938    0.287170
Te93    O    0.500001    0.817153    0.250466
Te94    O    0.500046    0.913946    0.217942
Te95    O    0.499996    0.980482    0.356201
Te96    O    0.499983    0.883690    0.388706
Mg47    Mg    0.499994    0.950978    0.411716
Mg48    Mg    0.500035    0.846658    0.194932
Sn229    C    0.843158    0.000003    0.891977
Sn230    C    0.906681    0.000003    0.835211
Sn231    C    0.863381    1.000000    0.806840
Sn232    C    0.799859    1.000000    0.863606
C233    C    0.896260    0.999996    0.877587
C234    C    0.810240    0.999999    0.821230
Te97    O    0.959868    0.999999    0.821153
Te98    O    0.873319    0.999958    0.764460
Te99    O    0.746672    0.000004    0.877664
Te100    O    0.833228    0.000016    0.934338
Mg49    Mg    0.753987    0.000006    0.938149
Mg50    Mg    0.952560    0.999968    0.760650
Sn235    C    0.000003    0.168494    0.348049
Sn236    C    0.000003    0.232757    0.400022
Sn237    C    1.000000    0.196455    0.431367
Sn238    C    1.000000    0.132191    0.379394
C239    C    0.999995    0.218516    0.358577
C240    C    0.999999    0.146397    0.420841
Te101    O    0.999999    0.282821    0.410214
Te102    O    0.999954    0.210257    0.472850
Te103    O    0.000004    0.082128    0.369202
Te104    O    0.000017    0.154701    0.306584
Mg51    Mg    0.000006    0.082031    0.308458
Mg52    Mg    0.999965    0.282926    0.470975
Sn241    C    0.101728    0.499997    0.729844
Sn242    C    0.066258    0.499997    0.799474
Sn243    C    0.119370    0.500000    0.815316
Sn244    C    0.154840    0.500000    0.745686
C245    C    0.057812    0.500005    0.756842
C246    C    0.163323    0.500001    0.788308
Te105    O    0.022117    0.500001    0.826180
Te106    O    0.128273    0.500042    0.857830
Te107    O    0.198980    0.499996    0.718980
Te108    O    0.092826    0.499984    0.687349
Mg53    Mg    0.165980    0.499994    0.663734
Mg54    Mg    0.055119    0.500032    0.881445
Sn247    C    0.700148    0.499997    0.863602
Sn248    C    0.636628    0.499997    0.806834
Sn249    C    0.593328    0.500000    0.835205
Sn250    C    0.656847    0.500000    0.891972
C251    C    0.689742    0.500005    0.821237
C252    C    0.603728    0.500001    0.877599
Te109    O    0.626664    0.500001    0.764456
Te110    O    0.540135    0.500042    0.821166
Te111    O    0.666811    0.499996    0.934351
Te112    O    0.753318    0.499985    0.877633
Mg55    Mg    0.746039    0.499994    0.938132
Mg56    Mg    0.547414    0.500032    0.760667
Sn253    C    0.499997    0.732751    0.400019
Sn254    C    0.499997    0.668490    0.348044
Sn255    C    0.500000    0.632186    0.379387
Sn256    C    0.500000    0.696447    0.431363
C257    C    0.500005    0.718525    0.358584
C258    C    0.500001    0.646411    0.420852
Te113    O    0.500001    0.654665    0.306564
Te114    O    0.500046    0.582120    0.369215
Te115    O    0.499996    0.710272    0.472843
Te116    O    0.499983    0.782796    0.410185
Mg57    Mg    0.499994    0.782927    0.470940
Mg58    Mg    0.500035    0.581989    0.308460
Sn259    C    0.499996    0.367814    0.379397
Sn260    C    0.499996    0.303553    0.431373
Sn261    C    0.500001    0.267250    0.400029
Sn262    C    0.500001    0.331511    0.348054
C263    C    0.500005    0.353588    0.420832
C264    C    0.500001    0.281474    0.358564
Te117    O    0.500001    0.289728    0.472853
Te118    O    0.500046    0.217183    0.410201
Te119    O    0.499996    0.345336    0.306574
Te120    O    0.499983    0.417859    0.369232
Mg59    Mg    0.499994    0.417991    0.308477
Mg60    Mg    0.500035    0.217052    0.470956
Sn265    C    0.000003    0.642081    0.723189
Sn266    C    0.000003    0.608707    0.653854
Sn267    C    1.000000    0.560278    0.670132
Sn268    C    1.000000    0.593652    0.739467
C269    C    0.999995    0.649273    0.680503
C270    C    0.999999    0.553070    0.712845
Te121    O    0.999999    0.616287    0.611264
Te122    O    0.999954    0.519504    0.643809
Te123    O    0.000004    0.586071    0.782057
Te124    O    0.000017    0.682839    0.749499
Mg61    Mg    0.000006    0.653361    0.805036
Mg62    Mg    0.999965    0.548982    0.588272
Sn271    C    0.406674    0.500003    0.164785
Sn272    C    0.343155    0.500003    0.108018
Sn273    C    0.299854    0.500000    0.136388
Sn274    C    0.363374    0.500000    0.193156
C275    C    0.396269    0.499996    0.122421
C276    C    0.310254    0.499999    0.178783
Te125    O    0.333191    0.499999    0.065639
Te126    O    0.246662    0.499958    0.122350
Te127    O    0.373338    0.500004    0.235534
Te128    O    0.459845    0.500016    0.178816
Mg63    Mg    0.452566    0.500006    0.239315
Mg64    Mg    0.253941    0.499968    0.061851

loop_
_geom_bond_atom_site_label_1
_geom_bond_atom_site_label_2
_geom_bond_distance
H1    C19    0.03359
C1    C2    0.05318
C1    C20    0.04537
C1    C81    0.04667
C2    C82    0.04488
C2    C258    0.05614
C3    N1    0.04697
C3    H9    0.03359
C3    C257    0.05153
N1    C227    0.05097
C4    C12    0.05048
C4    H6    0.03277
C4    C17    0.04537
H2    C12    0.03277
H3    C23    0.03359
C5    C6    0.05318
C5    C24    0.04537
C5    C83    0.04667
C6    C84    0.04488
C6    C240    0.05614
C7    N2    0.04697
C7    H11    0.03359
C7    C239    0.05153
N2    C167    0.05097
C8    C16    0.05048
C8    H8    0.03277
C8    C21    0.04537
H4    C16    0.03277
H5    C27    0.03359
C9    C10    0.05318
C9    C28    0.04537
C9    C77    0.04667
C10    C78    0.04488
C10    C263    0.05616
C11    N3    0.04697
C11    H13    0.03359
C11    C264    0.05152
N3    C180    0.05095
C12    C25    0.04537
H7    C31    0.03359
C13    C14    0.05318
C13    C32    0.04537
C13    C79    0.04667
C14    C80    0.04488
C14    C173    0.05616
C15    N4    0.04697
C15    H15    0.03359
C15    C174    0.05151
N4    C186    0.05095
C16    C29    0.04537
C17    C18    0.05318
C17    C81    0.04667
C18    C82    0.04488
C18    C108    0.05614
C19    N5    0.04697
C19    C107    0.05153
N5    C132    0.05095
C20    C28    0.05048
C20    H14    0.03277
H10    C28    0.03277
C21    C22    0.05318
C21    C83    0.04667
C22    C84    0.04488
C22    C210    0.05614
C23    N6    0.04697
C23    C209    0.05153
N6    C197    0.05097
C24    C32    0.05048
C24    H16    0.03277
H12    C32    0.03277
C25    C26    0.05318
C25    C77    0.04667
C26    C78    0.04488
C26    C215    0.05616
C27    N7    0.04697
C27    C216    0.05152
N7    C120    0.05095
C29    C30    0.05318
C29    C79    0.04667
C30    C80    0.04488
C30    C126    0.05614
C31    N8    0.04697
C31    C125    0.05153
N8    C269    0.05097
H17    C59    0.03353
C33    C34    0.05171
C33    C60    0.04479
C33    C73    0.05448
C34    H18    0.04006
C34    C58    0.04210
C35    N9    0.05053
C35    H29    0.03353
C35    C96    0.05535
N9    C113    0.05534
C36    C57    0.04479
C36    C74    0.05450
C36    C137    0.06175
H19    C63    0.03353
C37    C38    0.05171
C37    C64    0.04479
C37    C75    0.05448
C38    H20    0.04006
C38    C62    0.04210
C39    N10    0.05053
C39    H31    0.03353
C39    C251    0.05536
N10    C90    0.05532
C40    C61    0.04479
C40    C76    0.05450
C40    C204    0.06173
H21    C51    0.03353
C41    C42    0.05171
C41    C52    0.04479
C41    C73    0.05448
C42    H22    0.04006
C42    C50    0.04210
C43    N11    0.05053
C43    H25    0.03353
C43    C234    0.05534
N11    C192    0.05532
C44    C49    0.04479
C44    C74    0.05450
C44    C150    0.06173
H23    C55    0.03353
C45    C46    0.05171
C45    C56    0.04479
C45    C75    0.05448
C46    H24    0.04006
C46    C54    0.04210
C47    N12    0.05053
C47    H27    0.03353
C47    C102    0.05534
N12    C246    0.05532
C48    C53    0.04479
C48    C76    0.05450
C48    C275    0.06175
C49    C50    0.05171
C49    C69    0.05448
C50    H26    0.04006
C51    N13    0.05053
C51    C149    0.05536
N13    C222    0.05532
C52    C70    0.05450
C52    C233    0.06175
C53    C54    0.05171
C53    C71    0.05448
C54    H28    0.04006
C55    N14    0.05053
C55    C276    0.05535
N14    C162    0.05532
C56    C72    0.05450
C56    C101    0.06175
C57    C58    0.05171
C57    C69    0.05448
C58    H30    0.04006
C59    N15    0.05053
C59    C138    0.05535
N15    C144    0.05532
C60    C70    0.05450
C60    C95    0.06175
C61    C62    0.05171
C61    C71    0.05448
C62    H32    0.04006
C63    N16    0.05053
C63    C203    0.05536
N16    C156    0.05532
C64    C72    0.05450
C64    C252    0.06173
C65    C114    0.06182
C65    C119    0.05748
C65    C131    0.05748
C65    C191    0.06184
C66    C89    0.06184
C66    C198    0.05747
C66    C245    0.06184
C66    C270    0.05747
C67    C143    0.06184
C67    C179    0.05748
C67    C221    0.06184
C67    C228    0.05747
C68    C155    0.06184
C68    C161    0.06184
C68    C168    0.05747
C68    C185    0.05748
C69    C73    0.04562
C70    H33    0.03137
C71    C75    0.04562
C72    H34    0.03137
C74    H35    0.03137
C76    H36    0.03137
C77    C81    0.05402
C78    H37    0.03663
C79    C83    0.05402
C80    H38    0.03663
C82    H39    0.03663
C84    H40    0.03663
Sn85    Sn88    0.05542
Sn85    C89    0.04345
Sn85    Te4    0.05157
Sn86    Sn87    0.05542
Sn86    C89    0.05156
Sn86    Te1    0.04344
Sn87    C90    0.04348
Sn87    Te2    0.05159
Sn88    C90    0.05157
Sn88    Te3    0.04344
Te1    Mg2    0.07688
Te2    Mg2    0.06436
Te3    Mg1    0.07686
Te4    Mg1    0.06436
Sn91    Sn94    0.05177
Sn91    C95    0.04362
Sn91    Te8    0.05499
Sn92    Sn93    0.05177
Sn92    C95    0.05503
Sn92    Te5    0.04353
Sn93    C96    0.04365
Sn93    Te6    0.05501
Sn94    C96    0.05503
Sn94    Te7    0.04353
Te5    Mg4    0.07934
Te6    Mg4    0.06094
Te7    Mg3    0.07932
Te8    Mg3    0.06094
Sn97    Sn100    0.05177
Sn97    C101    0.05502
Sn97    Te12    0.04351
Sn98    Sn99    0.05177
Sn98    C101    0.04364
Sn98    Te9    0.05501
Sn99    C102    0.05505
Sn99    Te10    0.04353
Sn100    C102    0.04363
Sn100    Te11    0.05501
Te9    Mg6    0.06094
Te10    Mg6    0.07933
Te11    Mg5    0.06093
Te12    Mg5    0.07933
Sn103    Sn106    0.04796
Sn103    C107    0.04381
Sn103    Te16    0.05107
Sn104    Sn105    0.04796
Sn104    C107    0.05113
Sn104    Te13    0.04372
Sn105    C108    0.04384
Sn105    Te14    0.05109
Sn106    C108    0.05113
Sn106    Te15    0.04372
Te13    Mg8    0.07270
Te14    Mg8    0.06075
Te15    Mg7    0.07268
Te16    Mg7    0.06075
Sn109    Sn112    0.05542
Sn109    C113    0.04345
Sn109    Te20    0.05157
Sn110    Sn111    0.05542
Sn110    C113    0.05156
Sn110    Te17    0.04344
Sn111    C114    0.04348
Sn111    Te18    0.05159
Sn112    C114    0.05157
Sn112    Te19    0.04344
Te17    Mg10    0.07688
Te18    Mg10    0.06436
Te19    Mg9    0.07686
Te20    Mg9    0.06436
Sn115    Sn118    0.05109
Sn115    C119    0.04329
Sn115    Te24    0.04851
Sn116    Sn117    0.05109
Sn116    C119    0.04854
Sn116    Te21    0.04326
Sn117    C120    0.04332
Sn117    Te22    0.04853
Sn118    C120    0.04854
Sn118    Te23    0.04326
Te21    Mg12    0.07112
Te22    Mg12    0.06288
Te23    Mg11    0.07110
Te24    Mg11    0.06288
Sn121    Sn124    0.04796
Sn121    C125    0.05112
Sn121    Te28    0.04370
Sn122    Sn123    0.04796
Sn122    C125    0.04382
Sn122    Te25    0.05109
Sn123    C126    0.05115
Sn123    Te26    0.04372
Sn124    C126    0.04381
Sn124    Te27    0.05109
Te25    Mg14    0.06076
Te26    Mg14    0.07269
Te27    Mg13    0.06074
Te28    Mg13    0.07269
Sn127    Sn130    0.05109
Sn127    C131    0.04329
Sn127    Te32    0.04851
Sn128    Sn129    0.05109
Sn128    C131    0.04854
Sn128    Te29    0.04326
Sn129    C132    0.04332
Sn129    Te30    0.04853
Sn130    C132    0.04854
Sn130    Te31    0.04326
Te29    Mg16    0.07112
Te30    Mg16    0.06288
Te31    Mg15    0.07110
Te32    Mg15    0.06288
Sn133    Sn136    0.05177
Sn133    C137    0.04362
Sn133    Te36    0.05499
Sn134    Sn135    0.05177
Sn134    C137    0.05503
Sn134    Te33    0.04353
Sn135    C138    0.04365
Sn135    Te34    0.05501
Sn136    C138    0.05503
Sn136    Te35    0.04353
Te33    Mg18    0.07934
Te34    Mg18    0.06094
Te35    Mg17    0.07932
Te36    Mg17    0.06094
Sn139    Sn142    0.05542
Sn139    C143    0.04345
Sn139    Te40    0.05157
Sn140    Sn141    0.05542
Sn140    C143    0.05156
Sn140    Te37    0.04344
Sn141    C144    0.04348
Sn141    Te38    0.05159
Sn142    C144    0.05157
Sn142    Te39    0.04344
Te37    Mg20    0.07688
Te38    Mg20    0.06436
Te39    Mg19    0.07686
Te40    Mg19    0.06436
Sn145    Sn148    0.05177
Sn145    C149    0.05502
Sn145    Te44    0.04351
Sn146    Sn147    0.05177
Sn146    C149    0.04364
Sn146    Te41    0.05501
Sn147    C150    0.05505
Sn147    Te42    0.04353
Sn148    C150    0.04363
Sn148    Te43    0.05501
Te41    Mg22    0.06094
Te42    Mg22    0.07933
Te43    Mg21    0.06093
Te44    Mg21    0.07933
Sn151    Sn154    0.05542
Sn151    C155    0.05155
Sn151    Te48    0.04342
Sn152    Sn153    0.05542
Sn152    C155    0.04346
Sn152    Te45    0.05159
Sn153    C156    0.05159
Sn153    Te46    0.04344
Sn154    C156    0.04346
Sn154    Te47    0.05159
Te45    Mg24    0.06437
Te46    Mg24    0.07687
Te47    Mg23    0.06435
Te48    Mg23    0.07687
Sn157    Sn160    0.05542
Sn157    C161    0.04345
Sn157    Te52    0.05157
Sn158    Sn159    0.05542
Sn158    C161    0.05156
Sn158    Te49    0.04344
Sn159    C162    0.04348
Sn159    Te50    0.05159
Sn160    C162    0.05157
Sn160    Te51    0.04344
Te49    Mg26    0.07688
Te50    Mg26    0.06436
Te51    Mg25    0.07686
Te52    Mg25    0.06436
Sn163    Sn166    0.05109
Sn163    C167    0.04329
Sn163    Te56    0.04851
Sn164    Sn165    0.05109
Sn164    C167    0.04854
Sn164    Te53    0.04326
Sn165    C168    0.04332
Sn165    Te54    0.04853
Sn166    C168    0.04854
Sn166    Te55    0.04326
Te53    Mg28    0.07112
Te54    Mg28    0.06288
Te55    Mg27    0.07110
Te56    Mg27    0.06288
Sn169    Sn172    0.04796
Sn169    C173    0.05112
Sn169    Te60    0.04370
Sn170    Sn171    0.04796
Sn170    C173    0.04382
Sn170    Te57    0.05109
Sn171    C174    0.05115
Sn171    Te58    0.04372
Sn172    C174    0.04381
Sn172    Te59    0.05109
Te57    Mg30    0.06076
Te58    Mg30    0.07269
Te59    Mg29    0.06074
Te60    Mg29    0.07269
Sn175    Sn178    0.05109
Sn175    C179    0.04852
Sn175    Te64    0.04324
Sn176    Sn177    0.05109
Sn176    C179    0.04330
Sn176    Te61    0.04853
Sn177    C180    0.04856
Sn177    Te62    0.04326
Sn178    C180    0.04330
Sn178    Te63    0.04853
Te61    Mg32    0.06289
Te62    Mg32    0.07111
Te63    Mg31    0.06287
Te64    Mg31    0.07111
Sn181    Sn184    0.05109
Sn181    C185    0.04329
Sn181    Te68    0.04851
Sn182    Sn183    0.05109
Sn182    C185    0.04854
Sn182    Te65    0.04326
Sn183    C186    0.04332
Sn183    Te66    0.04853
Sn184    C186    0.04854
Sn184    Te67    0.04326
Te65    Mg34    0.07112
Te66    Mg34    0.06288
Te67    Mg33    0.07110
Te68    Mg33    0.06288
Sn187    Sn190    0.05542
Sn187    C191    0.05155
Sn187    Te72    0.04342
Sn188    Sn189    0.05542
Sn188    C191    0.04346
Sn188    Te69    0.05159
Sn189    C192    0.05159
Sn189    Te70    0.04344
Sn190    C192    0.04346
Sn190    Te71    0.05159
Te69    Mg36    0.06437
Te70    Mg36    0.07687
Te71    Mg35    0.06435
Te72    Mg35    0.07687
Sn193    Sn196    0.05109
Sn193    C197    0.04329
Sn193    Te76    0.04851
Sn194    Sn195    0.05109
Sn194    C197    0.04854
Sn194    Te73    0.04326
Sn195    C198    0.04332
Sn195    Te74    0.04853
Sn196    C198    0.04854
Sn196    Te75    0.04326
Te73    Mg38    0.07112
Te74    Mg38    0.06288
Te75    Mg37    0.07110
Te76    Mg37    0.06288
Sn199    Sn202    0.05177
Sn199    C203    0.05502
Sn199    Te80    0.04351
Sn200    Sn201    0.05177
Sn200    C203    0.04364
Sn200    Te77    0.05501
Sn201    C204    0.05505
Sn201    Te78    0.04353
Sn202    C204    0.04363
Sn202    Te79    0.05501
Te77    Mg40    0.06094
Te78    Mg40    0.07933
Te79    Mg39    0.06093
Te80    Mg39    0.07933
Sn205    Sn208    0.04796
Sn205    C209    0.05112
Sn205    Te84    0.04370
Sn206    Sn207    0.04796
Sn206    C209    0.04382
Sn206    Te81    0.05109
Sn207    C210    0.05115
Sn207    Te82    0.04372
Sn208    C210    0.04381
Sn208    Te83    0.05109
Te81    Mg42    0.06076
Te82    Mg42    0.07269
Te83    Mg41    0.06074
Te84    Mg41    0.07269
Sn211    Sn214    0.04796
Sn211    C215    0.04381
Sn211    Te88    0.05107
Sn212    Sn213    0.04796
Sn212    C215    0.05113
Sn212    Te85    0.04372
Sn213    C216    0.04384
Sn213    Te86    0.05109
Sn214    C216    0.05113
Sn214    Te87    0.04372
Te85    Mg44    0.07270
Te86    Mg44    0.06075
Te87    Mg43    0.07268
Te88    Mg43    0.06075
Sn217    Sn220    0.05542
Sn217    C221    0.04345
Sn217    Te92    0.05157
Sn218    Sn219    0.05542
Sn218    C221    0.05156
Sn218    Te89    0.04344
Sn219    C222    0.04348
Sn219    Te90    0.05159
Sn220    C222    0.05157
Sn220    Te91    0.04344
Te89    Mg46    0.07688
Te90    Mg46    0.06436
Te91    Mg45    0.07686
Te92    Mg45    0.06436
Sn223    Sn226    0.05109
Sn223    C227    0.04852
Sn223    Te96    0.04324
Sn224    Sn225    0.05109
Sn224    C227    0.04330
Sn224    Te93    0.04853
Sn225    C228    0.04856
Sn225    Te94    0.04326
Sn226    C228    0.04330
Sn226    Te95    0.04853
Te93    Mg48    0.06289
Te94    Mg48    0.07111
Te95    Mg47    0.06287
Te96    Mg47    0.07111
Sn229    Sn232    0.05177
Sn229    C233    0.05502
Sn229    Te100    0.04351
Sn230    Sn231    0.05177
Sn230    C233    0.04364
Sn230    Te97    0.05501
Sn231    C234    0.05505
Sn231    Te98    0.04353
Sn232    C234    0.04363
Sn232    Te99    0.05501
Te97    Mg50    0.06094
Te98    Mg50    0.07933
Te99    Mg49    0.06093
Te100    Mg49    0.07933
Sn235    Sn238    0.04796
Sn235    C239    0.05112
Sn235    Te104    0.04370
Sn236    Sn237    0.04796
Sn236    C239    0.04382
Sn236    Te101    0.05109
Sn237    C240    0.05115
Sn237    Te102    0.04372
Sn238    C240    0.04381
Sn238    Te103    0.05109
Te101    Mg52    0.06076
Te102    Mg52    0.07269
Te103    Mg51    0.06074
Te104    Mg51    0.07269
Sn241    Sn244    0.05542
Sn241    C245    0.05155
Sn241    Te108    0.04342
Sn242    Sn243    0.05542
Sn242    C245    0.04346
Sn242    Te105    0.05159
Sn243    C246    0.05159
Sn243    Te106    0.04344
Sn244    C246    0.04346
Sn244    Te107    0.05159
Te105    Mg54    0.06437
Te106    Mg54    0.07687
Te107    Mg53    0.06435
Te108    Mg53    0.07687
Sn247    Sn250    0.05177
Sn247    C251    0.04362
Sn247    Te112    0.05499
Sn248    Sn249    0.05177
Sn248    C251    0.05503
Sn248    Te109    0.04353
Sn249    C252    0.04365
Sn249    Te110    0.05501
Sn250    C252    0.05503
Sn250    Te111    0.04353
Te109    Mg56    0.07934
Te110    Mg56    0.06094
Te111    Mg55    0.07932
Te112    Mg55    0.06094
Sn253    Sn256    0.04796
Sn253    C257    0.04381
Sn253    Te116    0.05107
Sn254    Sn255    0.04796
Sn254    C257    0.05113
Sn254    Te113    0.04372
Sn255    C258    0.04384
Sn255    Te114    0.05109
Sn256    C258    0.05113
Sn256    Te115    0.04372
Te113    Mg58    0.07270
Te114    Mg58    0.06075
Te115    Mg57    0.07268
Te116    Mg57    0.06075
Sn259    Sn262    0.04796
Sn259    C263    0.04381
Sn259    Te120    0.05107
Sn260    Sn261    0.04796
Sn260    C263    0.05113
Sn260    Te117    0.04372
Sn261    C264    0.04384
Sn261    Te118    0.05109
Sn262    C264    0.05113
Sn262    Te119    0.04372
Te117    Mg60    0.07270
Te118    Mg60    0.06075
Te119    Mg59    0.07268
Te120    Mg59    0.06075
Sn265    Sn268    0.05109
Sn265    C269    0.04329
Sn265    Te124    0.04851
Sn266    Sn267    0.05109
Sn266    C269    0.04854
Sn266    Te121    0.04326
Sn267    C270    0.04332
Sn267    Te122    0.04853
Sn268    C270    0.04854
Sn268    Te123    0.04326
Te121    Mg62    0.07112
Te122    Mg62    0.06288
Te123    Mg61    0.07110
Te124    Mg61    0.06288
Sn271    Sn274    0.05177
Sn271    C275    0.04362
Sn271    Te128    0.05499
Sn272    Sn273    0.05177
Sn272    C275    0.05503
Sn272    Te125    0.04353
Sn273    C276    0.04365
Sn273    Te126    0.05501
Sn274    C276    0.05503
Sn274    Te127    0.04353
Te125    Mg64    0.07934
Te126    Mg64    0.06094
Te127    Mg63    0.07932
Te128    Mg63    0.06094
