data_new_xtal_PM
_symmetry_space_group_name_H-M    'P1'
_cell_length_a    43.778800
_cell_length_b    23.475700
_cell_length_c    21.378200
_cell_angle_alpha    90.000000
_cell_angle_beta    90.000000
_cell_angle_gamma    90.000000
_symmetry_Int_Tables_number 1

loop_
_symmetry_equiv_pos_as_xyz
'x,y,z'

loop_
_atom_site_label
_atom_site_type_symbol
_atom_site_fract_x
_atom_site_fract_y
_atom_site_fract_z
C1    C    0.353300    0.384290    0.682810
C2    C    0.146750    0.431850    0.036770
C3    C    0.436110    0.612920    0.538960
C4    C    0.445090    0.619760    0.601920
N1    N    0.330560    0.650830    0.794400
C5    C    0.594410    0.597710    0.518610
H1    H    0.613670    0.589400    0.427400
C6    C    0.975430    0.274920    0.024760
C7    C    0.985110    0.333530    0.035760
N2    N    0.848870    0.468490    0.992040
C8    C    0.055060    0.257310    0.020350
H2    H    0.970920    0.370490    0.043180
H3    H    0.354740    0.418880    0.649440
H4    H    0.160570    0.432510    0.078540
C9    C    0.350300    0.389810    0.287870
C10    C    0.146510    0.875610    0.036010
C11    C    0.436050    0.615120    0.437420
C12    C    0.445120    0.624400    0.374960
N3    N    0.332020    0.653730    0.178310
C13    C    0.594440    0.598980    0.456990
H5    H    0.613610    0.586940    0.547780
C14    C    0.975430    0.032720    0.023400
C15    C    0.985100    0.973970    0.033400
N4    N    0.847530    0.841760    0.989450
C16    C    0.055030    0.050500    0.019430
H6    H    0.970890    0.936910    0.040040
H7    H    0.349900    0.426470    0.318610
H8    H    0.158920    0.872330    0.079520
C17    C    0.761710    0.654060    0.987500
N5    N    0.953620    0.153930    0.019440
N6    N    0.453690    0.622930    0.488390
C18    C    0.475460    0.626970    0.621250
C19    C    0.484470    0.640420    0.681410
C20    C    0.475480    0.633430    0.356640
C21    C    0.484490    0.649260    0.297170
H9    H    0.470140    0.659280    0.257600
H10    H    0.470090    0.649170    0.721280
C22    C    0.064540    0.799940    0.514770
C23    C    0.094230    0.816910    0.506240
C24    C    0.064510    0.892200    0.514400
C25    C    0.094210    0.875230    0.506060
H11    H    0.113950    0.789950    0.501010
H12    H    0.113910    0.902220    0.500690
C26    C    0.646700    0.615710    0.182810
C27    C    0.853250    0.568150    0.536770
C28    C    0.563890    0.387080    0.038960
C29    C    0.554910    0.380240    0.101920
N7    N    0.669440    0.349170    0.294400
C30    C    0.405590    0.402290    0.018610
H13    H    0.386330    0.410600    0.927400
C31    C    0.024570    0.725080    0.524760
C32    C    0.014890    0.666470    0.535760
N8    N    0.151130    0.531510    0.492040
C33    C    0.944940    0.742690    0.520350
H14    H    0.029080    0.629510    0.543180
H15    H    0.645260    0.581120    0.149440
H16    H    0.839430    0.567490    0.578540
C34    C    0.649700    0.610190    0.787870
C35    C    0.853490    0.124390    0.536010
C36    C    0.563950    0.384880    0.937420
C37    C    0.554880    0.375600    0.874960
N9    N    0.667980    0.346270    0.678310
C38    C    0.405560    0.401020    0.956990
H17    H    0.386390    0.413060    0.047780
C39    C    0.024570    0.967280    0.523400
C40    C    0.014900    0.026030    0.533400
N10    N    0.152470    0.158240    0.489450
C41    C    0.944970    0.949500    0.519430
H18    H    0.029110    0.063090    0.540040
H19    H    0.650100    0.573530    0.818610
H20    H    0.841080    0.127670    0.579520
C42    C    0.238290    0.345940    0.487500
N11    N    0.046380    0.846070    0.519440
N12    N    0.546310    0.377070    0.988390
C43    C    0.524540    0.373030    0.121250
C44    C    0.515530    0.359580    0.181410
C45    C    0.524520    0.366570    0.856640
C46    C    0.515510    0.350740    0.797170
H21    H    0.529860    0.340720    0.757600
H22    H    0.529910    0.350830    0.221280
C47    C    0.935460    0.200060    0.014770
C48    C    0.905770    0.183090    0.006240
C49    C    0.935490    0.107800    0.014400
C50    C    0.905790    0.124770    0.006060
H23    H    0.886050    0.210050    0.001010
H24    H    0.886090    0.097780    0.000690
C51    C    0.353300    0.615710    0.182810
C52    C    0.146750    0.568150    0.536770
C53    C    0.436110    0.387080    0.038960
C54    C    0.445090    0.380240    0.101920
N13    N    0.330560    0.349170    0.294400
C55    C    0.594410    0.402290    0.018610
H25    H    0.613670    0.410600    0.927400
C56    C    0.975430    0.725080    0.524760
C57    C    0.985110    0.666470    0.535760
N14    N    0.848870    0.531510    0.492040
C58    C    0.055060    0.742690    0.520350
H26    H    0.970920    0.629510    0.543180
H27    H    0.354740    0.581120    0.149440
H28    H    0.160570    0.567490    0.578540
C59    C    0.350300    0.610190    0.787870
C60    C    0.146510    0.124390    0.536010
C61    C    0.436050    0.384880    0.937420
C62    C    0.445120    0.375600    0.874960
N15    N    0.332020    0.346270    0.678310
C63    C    0.594440    0.401020    0.956990
H29    H    0.613610    0.413060    0.047780
C64    C    0.975430    0.967280    0.523400
C65    C    0.985100    0.026030    0.533400
N16    N    0.847530    0.158240    0.489450
C66    C    0.055030    0.949500    0.519430
H30    H    0.970890    0.063090    0.540040
H31    H    0.349900    0.573530    0.818610
H32    H    0.158920    0.127670    0.579520
C67    C    0.761710    0.345940    0.487500
N17    N    0.953620    0.846070    0.519440
N18    N    0.453690    0.377070    0.988390
C68    C    0.475460    0.373030    0.121250
C69    C    0.484470    0.359580    0.181410
C70    C    0.475480    0.366570    0.856640
C71    C    0.484490    0.350740    0.797170
H33    H    0.470140    0.340720    0.757600
H34    H    0.470090    0.350830    0.221280
C72    C    0.064540    0.200060    0.014770
C73    C    0.094230    0.183090    0.006240
C74    C    0.064510    0.107800    0.014400
C75    C    0.094210    0.124770    0.006060
H35    H    0.113950    0.210050    0.001010
H36    H    0.113910    0.097780    0.000690
C76    C    0.646700    0.384290    0.682810
C77    C    0.853250    0.431850    0.036770
C78    C    0.563890    0.612920    0.538960
C79    C    0.554910    0.619760    0.601920
N19    N    0.669440    0.650830    0.794400
C80    C    0.405590    0.597710    0.518610
H37    H    0.386330    0.589400    0.427400
C81    C    0.024570    0.274920    0.024760
C82    C    0.014890    0.333530    0.035760
N20    N    0.151130    0.468490    0.992040
C83    C    0.944940    0.257310    0.020350
H38    H    0.029080    0.370490    0.043180
H39    H    0.645260    0.418880    0.649440
H40    H    0.839430    0.432510    0.078540
C84    C    0.649700    0.389810    0.287870
C85    C    0.853490    0.875610    0.036010
C86    C    0.563950    0.615120    0.437420
C87    C    0.554880    0.624400    0.374960
N21    N    0.667980    0.653730    0.178310
C88    C    0.405560    0.598980    0.456990
H41    H    0.386390    0.586940    0.547780
C89    C    0.024570    0.032720    0.023400
C90    C    0.014900    0.973970    0.033400
N22    N    0.152470    0.841760    0.989450
C91    C    0.944970    0.050500    0.019430
H42    H    0.029110    0.936910    0.040040
H43    H    0.650100    0.426470    0.318610
H44    H    0.841080    0.872330    0.079520
C92    C    0.238290    0.654060    0.987500
N23    N    0.046380    0.153930    0.019440
N24    N    0.546310    0.622930    0.488390
C93    C    0.524540    0.626970    0.621250
C94    C    0.515530    0.640420    0.681410
C95    C    0.524520    0.633430    0.356640
C96    C    0.515510    0.649260    0.297170
H45    H    0.529860    0.659280    0.257600
H46    H    0.529910    0.649170    0.721280
C97    C    0.935460    0.799940    0.514770
C98    C    0.905770    0.816910    0.506240
C99    C    0.935490    0.892200    0.514400
C100    C    0.905790    0.875230    0.506060
H47    H    0.886050    0.789950    0.501010
H48    H    0.886090    0.902220    0.500690
N25    N    0.500000    0.624210    0.393190
N26    N    0.500000    0.618860    0.584680
Cu1    Cu    0.500000    0.378640    0.989450
N27    N    0.500000    0.375790    0.893190
N28    N    0.500000    0.381140    0.084680
Cu2    Cu    0.500000    0.621360    0.489450
N29    N    0.000000    0.758970    0.518440
N30    N    0.000000    0.933410    0.517570
Cu3    Cu    0.000000    0.153630    0.015600
N31    N    0.000000    0.241030    0.018440
N32    N    0.000000    0.066590    0.017570
Cu4    Cu    0.000000    0.846370    0.515600
Sn101    C    0.816832    0.229826    0.546730
Sn102    C    0.814898    0.224109    0.433261
Sn103    C    0.793452    0.269414    0.432043
Sn104    C    0.795387    0.275131    0.545512
C105    C    0.826433    0.204625    0.490609
C106    C    0.783837    0.294634    0.488194
Te1    O    0.824636    0.198652    0.377465
Te2    O    0.781761    0.289173    0.375052
Te3    O    0.785649    0.300589    0.601309
Te4    O    0.828506    0.210052    0.603698
Mg1    Mg    0.808175    0.258547    0.666755
Mg2    Mg    0.802092    0.240678    0.311994
Sn107    C    0.096803    0.693876    0.577310
Sn108    C    0.082579    0.660155    0.473817
Sn109    C    0.105187    0.616994    0.477746
Sn110    C    0.119410    0.650715    0.581238
C111    C    0.078542    0.698290    0.523642
C112    C    0.123459    0.612560    0.531447
Te5    O    0.064222    0.664929    0.420414
Te6    O    0.109395    0.578650    0.428300
Te7    O    0.137767    0.645941    0.634642
Te8    O    0.092583    0.732184    0.626747
Mg3    Mg    0.123224    0.708161    0.689298
Mg4    Mg    0.078754    0.602673    0.365749
Sn113    C    0.180651    0.460895    0.435613
Sn114    C    0.185459    0.465412    0.548789
Sn115    C    0.207151    0.420531    0.547085
Sn116    C    0.202343    0.416014    0.433909
C117    C    0.172364    0.485287    0.493028
C118    C    0.215451    0.396121    0.489637
Te9    O    0.177025    0.490063    0.605898
Te10    O    0.220393    0.400389    0.602469
Te11    O    0.210777    0.391363    0.376799
Te12    O    0.167427    0.481053    0.380251
Mg5    Mg    0.186378    0.433660    0.314439
Mg6    Mg    0.201442    0.447782    0.668280
Sn119    C    0.297965    0.601177    0.106491
Sn120    C    0.295096    0.704327    0.114595
Sn121    C    0.271544    0.705018    0.069006
Sn122    C    0.274413    0.601868    0.060903
C123    C    0.308147    0.652402    0.133009
C124    C    0.261355    0.653768    0.042455
Te13    O    0.305427    0.755258    0.141371
Te14    O    0.258371    0.756626    0.050226
Te15    O    0.264082    0.550937    0.034127
Te16    O    0.311146    0.549597    0.125239
Mg7    Mg    0.289244    0.491859    0.075098
Mg8    Mg    0.280273    0.814363    0.100367
Sn125    C    0.106010    0.926321    0.975800
Sn126    C    0.118522    0.957043    0.081326
Sn127    C    0.095940    0.000250    0.077385
Sn128    C    0.083428    0.969528    0.971860
C129    C    0.123394    0.920370    0.030499
C130    C    0.078537    0.006208    0.022660
Te17    O    0.136009    0.950746    0.135752
Te18    O    0.090861    0.037069    0.127874
Te19    O    0.065940    0.975825    0.917433
Te20    O    0.111075    0.889495    0.925348
Mg9    Mg    0.081425    0.915254    0.861640
Mg10    Mg    0.120511    0.011310    0.191583
Sn131    C    0.375000    0.658367    0.696767
Sn132    C    0.397402    0.572395    0.740505
Sn133    C    0.420915    0.574453    0.694881
Sn134    C    0.398513    0.660425    0.651142
C135    C    0.374604    0.614369    0.741118
C136    C    0.421315    0.618470    0.650488
Te21    O    0.396801    0.528627    0.785014
Te22    O    0.443778    0.532734    0.693795
Te23    O    0.399114    0.704193    0.606633
Te24    O    0.352137    0.700048    0.697832
Mg11    Mg    0.362935    0.750799    0.627470
Mg12    Mg    0.432980    0.481983    0.764157
Sn137    C    0.118520    0.042958    0.581317
Sn138    C    0.106010    0.073683    0.475792
Sn139    C    0.083427    0.030477    0.471850
Sn140    C    0.095938    0.999752    0.577375
C141    C    0.123395    0.079625    0.530513
C142    C    0.078540    0.993785    0.522683
Te25    O    0.111059    0.110525    0.425306
Te26    O    0.065914    0.024193    0.417460
Te27    O    0.090889    0.962910    0.627861
Te28    O    0.136014    0.049263    0.635695
Mg13    Mg    0.120537    0.988698    0.691534
Mg14    Mg    0.081391    0.084758    0.361622
Sn143    C    0.271541    0.294990    0.568995
Sn144    C    0.274411    0.398140    0.560891
Sn145    C    0.297963    0.398832    0.606480
Sn146    C    0.295094    0.295682    0.614584
C147    C    0.261360    0.346215    0.542477
C148    C    0.308152    0.347581    0.633032
Te29    O    0.264079    0.449071    0.534116
Te30    O    0.311136    0.450439    0.625261
Te31    O    0.305425    0.244751    0.641360
Te32    O    0.258360    0.243410    0.550247
Mg15    Mg    0.280262    0.185672    0.600389
Mg16    Mg    0.289234    0.508176    0.575120
Sn149    C    0.601483    0.660429    0.651138
Sn150    C    0.579079    0.574457    0.694874
Sn151    C    0.602594    0.572392    0.740493
Sn152    C    0.624997    0.658364    0.696758
C153    C    0.578693    0.618463    0.650503
C154    C    0.625404    0.614374    0.741134
Te33    O    0.556208    0.532747    0.693841
Te34    O    0.603220    0.528614    0.784983
Te35    O    0.647868    0.700074    0.697791
Te36    O    0.600865    0.704168    0.606644
Mg17    Mg    0.637051    0.750800    0.627442
Mg18    Mg    0.567035    0.481982    0.764185
Sn155    C    0.819349    0.539105    0.935613
Sn156    C    0.814541    0.534588    0.048789
Sn157    C    0.792849    0.579469    0.047085
Sn158    C    0.797657    0.583986    0.933909
C159    C    0.827636    0.514713    0.993028
C160    C    0.784549    0.603879    0.989637
Te37    O    0.822975    0.509937    0.105898
Te38    O    0.779607    0.599611    0.102469
Te39    O    0.789223    0.608637    0.876799
Te40    O    0.832573    0.518947    0.880251
Mg19    Mg    0.813622    0.566340    0.814439
Mg20    Mg    0.798558    0.552218    0.168280
Sn161    C    0.577161    0.580765    0.279283
Sn162    C    0.601830    0.663496    0.325378
Sn163    C    0.624510    0.661868    0.277997
Sn164    C    0.599840    0.579137    0.231903
C165    C    0.578315    0.622918    0.325692
C166    C    0.623364    0.619686    0.231558
Te41    O    0.602777    0.705430    0.371943
Te42    O    0.648111    0.702139    0.277265
Te43    O    0.598894    0.537203    0.185337
Te44    O    0.553579    0.540493    0.280039
Mg21    Mg    0.562265    0.491999    0.206598
Mg22    Mg    0.639425    0.750632    0.350706
Sn167    C    0.105193    0.383008    0.977754
Sn168    C    0.119417    0.349287    0.081246
Sn169    C    0.096806    0.306131    0.077321
Sn170    C    0.082583    0.339853    0.973829
C171    C    0.123447    0.387434    0.031429
C172    C    0.078534    0.301698    0.023621
Te45    O    0.137770    0.354067    0.134654
Te46    O    0.092564    0.267847    0.126810
Te47    O    0.064230    0.335072    0.920421
Te48    O    0.109423    0.421298    0.928303
Mg23    Mg    0.078774    0.397289    0.865762
Mg24    Mg    0.123212    0.291855    0.189351
Sn173    C    0.400158    0.579138    0.231893
Sn174    C    0.375487    0.661870    0.277984
Sn175    C    0.398163    0.663494    0.325371
Sn176    C    0.422835    0.580763    0.279280
C177    C    0.376642    0.619688    0.231579
C178    C    0.421695    0.622917    0.325703
Te49    O    0.351903    0.702180    0.277250
Te50    O    0.397216    0.705389    0.371973
Te51    O    0.446419    0.540452    0.280014
Te52    O    0.401093    0.537242    0.185331
Mg25    Mg    0.437721    0.491998    0.206569
Mg26    Mg    0.360588    0.750633    0.350735
Sn179    C    0.420919    0.425536    0.194872
Sn180    C    0.398516    0.339564    0.151133
Sn181    C    0.375001    0.341627    0.196752
Sn182    C    0.397403    0.427599    0.240491
C183    C    0.421310    0.381548    0.150509
C184    C    0.374601    0.385645    0.241144
Te53    O    0.399115    0.295802    0.106618
Te54    O    0.352110    0.299961    0.197773
Te55    O    0.396805    0.471362    0.285006
Te56    O    0.443791    0.467202    0.193826
Mg27    Mg    0.432985    0.517965    0.264172
Mg28    Mg    0.362915    0.249198    0.127426
Sn185    C    0.602598    0.427598    0.240500
Sn186    C    0.625002    0.341626    0.196765
Sn187    C    0.601490    0.339566    0.151139
Sn188    C    0.579086    0.425538    0.194875
C189    C    0.625393    0.385642    0.241123
C190    C    0.578680    0.381549    0.150498
Te57    O    0.647876    0.299922    0.197791
Te58    O    0.600892    0.295841    0.106585
Te59    O    0.556212    0.467243    0.193849
Te60    O    0.603207    0.471322    0.285014
Mg29    Mg    0.567029    0.517966    0.264200
Mg30    Mg    0.637071    0.249197    0.127398
Sn191    C    0.904064    0.999743    0.577374
Sn192    C    0.916576    0.030465    0.471848
Sn193    C    0.893997    0.073677    0.475792
Sn194    C    0.881485    0.042955    0.581318
C195    C    0.921454    0.993804    0.522682
C196    C    0.876595    0.079636    0.530518
Te61    O    0.934067    0.024174    0.417426
Te62    O    0.888953    0.110557    0.425342
Te63    O    0.863993    0.049246    0.635740
Te64    O    0.909119    0.962899    0.627814
Mg31    Mg    0.879476    0.988672    0.691531
Mg32    Mg    0.918595    0.084784    0.361624
Sn197    C    0.704904    0.295681    0.614593
Sn198    C    0.702033    0.398831    0.606492
Sn199    C    0.725586    0.398142    0.560903
Sn200    C    0.728457    0.294992    0.569004
C201    C    0.691854    0.347585    0.633010
C202    C    0.738646    0.346210    0.542457
Te65    O    0.688849    0.450450    0.625213
Te66    O    0.735906    0.449051    0.534070
Te67    O    0.741641    0.243373    0.550283
Te68    O    0.694575    0.244792    0.641389
Mg33    Mg    0.719728    0.185674    0.600427
Mg34    Mg    0.710753    0.508169    0.575033
Sn203    C    0.601829    0.336511    0.825372
Sn204    C    0.577158    0.419242    0.779281
Sn205    C    0.599837    0.420871    0.731900
Sn206    C    0.624509    0.338140    0.777991
C207    C    0.578318    0.377071    0.825698
C208    C    0.623369    0.380295    0.731568
Te69    O    0.553577    0.459558    0.780022
Te70    O    0.598919    0.462824    0.685358
Te71    O    0.648090    0.297824    0.777250
Te72    O    0.602756    0.294598    0.871916
Mg35    Mg    0.639391    0.249367    0.850693
Mg36    Mg    0.562284    0.508054    0.706582
Sn209    C    0.207153    0.579479    0.047075
Sn210    C    0.202345    0.583998    0.933899
Sn211    C    0.180656    0.539111    0.935602
Sn212    C    0.185464    0.534593    0.048778
C213    C    0.215446    0.603860    0.989657
C214    C    0.172356    0.514699    0.993049
Te73    O    0.210782    0.608642    0.876789
Te74    O    0.167452    0.518905    0.880208
Te75    O    0.177026    0.509948    0.105888
Te76    O    0.220365    0.599656    0.102440
Mg37    Mg    0.201423    0.552248    0.168249
Mg38    Mg    0.186394    0.566313    0.814399
Sn215    C    0.814897    0.775889    0.933270
Sn216    C    0.816834    0.770175    0.046739
Sn217    C    0.795388    0.724870    0.045523
Sn218    C    0.793452    0.730584    0.932054
C219    C    0.826433    0.795375    0.990594
C220    C    0.783837    0.705367    0.988170
Te77    O    0.828497    0.789951    0.103752
Te78    O    0.785621    0.699431    0.101304
Te79    O    0.781789    0.710808    0.875041
Te80    O    0.824648    0.801340    0.877517
Mg39    Mg    0.802123    0.759320    0.812028
Mg40    Mg    0.808145    0.741452    0.166793
Sn221    C    0.797655    0.416004    0.433908
Sn222    C    0.792846    0.420519    0.547084
Sn223    C    0.814535    0.465406    0.548789
Sn224    C    0.819344    0.460891    0.435613
C225    C    0.784554    0.396139    0.489643
C226    C    0.827645    0.485300    0.493024
Te81    O    0.779628    0.400365    0.602491
Te82    O    0.822960    0.490101    0.605876
Te83    O    0.832562    0.481045    0.380205
Te84    O    0.789219    0.391341    0.376844
Mg41    Mg    0.813608    0.433633    0.314438
Mg42    Mg    0.798571    0.447809    0.668281
Sn227    C    0.702035    0.601177    0.106491
Sn228    C    0.704904    0.704327    0.114595
Sn229    C    0.728456    0.705018    0.069006
Sn230    C    0.725587    0.601868    0.060903
C231    C    0.691853    0.652402    0.133009
C232    C    0.738645    0.653768    0.042455
Te85    O    0.694573    0.755258    0.141371
Te86    O    0.741629    0.756626    0.050226
Te87    O    0.735918    0.550937    0.034127
Te88    O    0.688854    0.549597    0.125239
Mg43    Mg    0.710756    0.491859    0.075098
Mg44    Mg    0.719727    0.814363    0.100367
Sn233    C    0.904064    0.000257    0.077374
Sn234    C    0.916576    0.969535    0.971848
Sn235    C    0.893997    0.926323    0.975792
Sn236    C    0.881485    0.957045    0.081318
C237    C    0.921454    0.006196    0.022682
C238    C    0.876595    0.920364    0.030518
Te89    O    0.934067    0.975826    0.917426
Te90    O    0.888953    0.889443    0.925342
Te91    O    0.863993    0.950754    0.135740
Te92    O    0.909119    0.037101    0.127814
Mg45    Mg    0.879476    0.011328    0.191531
Mg46    Mg    0.918595    0.915216    0.861624
Sn239    C    0.375489    0.338137    0.777982
Sn240    C    0.400159    0.420868    0.731888
Sn241    C    0.422836    0.419245    0.779274
Sn242    C    0.398167    0.336514    0.825368
C243    C    0.376639    0.380301    0.731585
C244    C    0.421690    0.377064    0.825714
Te93    O    0.401103    0.462808    0.685329
Te94    O    0.446409    0.459574    0.780066
Te95    O    0.397223    0.294574    0.871927
Te96    O    0.351916    0.297848    0.777209
Mg47    Mg    0.360596    0.249368    0.850664
Mg48    Mg    0.437730    0.508053    0.706611
Sn245    C    0.206550    0.730575    0.932052
Sn246    C    0.204614    0.724858    0.045522
Sn247    C    0.183173    0.770168    0.046740
Sn248    C    0.185108    0.775885    0.933271
C249    C    0.216157    0.705385    0.988175
C250    C    0.173558    0.795389    0.990589
Te97    O    0.214357    0.699406    0.101319
Te98    O    0.171520    0.789990    0.103738
Te99    O    0.175366    0.801337    0.877474
Te100    O    0.218212    0.710782    0.875083
Mg49    Mg    0.197890    0.759292    0.812027
Mg50    Mg    0.191842    0.741479    0.166794
Sn251    C    0.730410    0.399431    0.405253
Sn252    C    0.726912    0.296149    0.409237
Sn253    C    0.703583    0.297423    0.363185
Sn254    C    0.707081    0.400706    0.359200
C255    C    0.740167    0.347171    0.429940
C256    C    0.693818    0.349710    0.338465
Te101    O    0.736819    0.244171    0.434197
Te102    O    0.690209    0.246733    0.342125
Te103    O    0.697173    0.452684    0.334241
Te104    O    0.743791    0.450096    0.426278
Mg51    Mg    0.722468    0.509872    0.378007
Mg52    Mg    0.711532    0.186956    0.390396
Sn257    C    0.292921    0.400707    0.359191
Sn258    C    0.296421    0.297424    0.363173
Sn259    C    0.273092    0.296148    0.409225
Sn260    C    0.269592    0.399430    0.405244
C261    C    0.306176    0.349706    0.338486
C262    C    0.259827    0.347176    0.429961
Te105    O    0.309806    0.246720    0.342172
Te106    O    0.263195    0.244190    0.434243
Te107    O    0.256207    0.450134    0.426244
Te108    O    0.302827    0.452643    0.334209
Mg53    Mg    0.277541    0.509872    0.377969
Mg54    Mg    0.288481    0.186960    0.390483
Sn263    C    0.880585    0.349288    0.081238
Sn264    C    0.894807    0.383012    0.977745
Sn265    C    0.917418    0.339857    0.973819
Sn266    C    0.903196    0.306133    0.077311
C267    C    0.876551    0.387429    0.031443
C268    C    0.921463    0.301691    0.023643
Te109    O    0.890594    0.421319    0.928263
Te110    O    0.935796    0.335089    0.920450
Te111    O    0.907409    0.267826    0.126794
Te112    O    0.862226    0.354078    0.134597
Mg55    Mg    0.876762    0.291865    0.189301
Mg56    Mg    0.921260    0.397301    0.865747
Sn269    C    0.730410    0.600569    0.905253
Sn270    C    0.726912    0.703851    0.909237
Sn271    C    0.703583    0.702577    0.863185
Sn272    C    0.707081    0.599294    0.859200
C273    C    0.740167    0.652829    0.929940
C274    C    0.693818    0.650290    0.838465
Te113    O    0.736819    0.755829    0.934197
Te114    O    0.690209    0.753267    0.842125
Te115    O    0.697173    0.547316    0.834241
Te116    O    0.743791    0.549904    0.926278
Mg57    Mg    0.722468    0.490128    0.878007
Mg58    Mg    0.711532    0.813044    0.890396
Sn275    C    0.204614    0.275140    0.545513
Sn276    C    0.206550    0.269427    0.432043
Sn277    C    0.185109    0.224116    0.433260
Sn278    C    0.183172    0.229829    0.546730
C279    C    0.216157    0.294615    0.488190
C280    C    0.173558    0.204612    0.490614
Te117    O    0.218217    0.289196    0.375031
Te118    O    0.175380    0.198614    0.377486
Te119    O    0.171505    0.210060    0.603742
Te120    O    0.214353    0.300611    0.601264
Mg59    Mg    0.191838    0.258575    0.666754
Mg60    Mg    0.197895    0.240650    0.311995
Sn281    C    0.917419    0.660156    0.473825
Sn282    C    0.903197    0.693880    0.577318
Sn283    C    0.880589    0.650720    0.581248
Sn284    C    0.894811    0.616996    0.477756
C285    C    0.921460    0.698286    0.523628
C286    C    0.876544    0.612553    0.531424
Te121    O    0.907414    0.732181    0.626805
Te122    O    0.862246    0.645892    0.634660
Te123    O    0.890595    0.578695    0.428268
Te124    O    0.935767    0.664963    0.420453
Mg61    Mg    0.921239    0.602737    0.365760
Mg62    Mg    0.876774    0.708118    0.689353
Sn287    C    0.269590    0.600569    0.905253
Sn288    C    0.273088    0.703851    0.909237
Sn289    C    0.296417    0.702577    0.863185
Sn290    C    0.292919    0.599294    0.859200
C291    C    0.259833    0.652829    0.929940
C292    C    0.306182    0.650290    0.838465
Te125    O    0.263181    0.755829    0.934197
Te126    O    0.309791    0.753267    0.842125
Te127    O    0.302827    0.547316    0.834241
Te128    O    0.256209    0.549904    0.926278
Mg63    Mg    0.277532    0.490128    0.878007
Mg64    Mg    0.288468    0.813044    0.890396

loop_
_geom_bond_atom_site_label_1
_geom_bond_atom_site_label_2
_geom_bond_distance
C1    H3    0.04808
C1    N15    0.04380
C1    C243    0.05422
C2    H4    0.04400
C2    N20    0.05799
C2    C171    0.05044
C3    C4    0.06396
C3    N6    0.05447
C3    C80    0.03971
C4    C18    0.03671
C4    C136    0.05409
N1    C59    0.04565
N1    C292    0.05036
C5    C13    0.06163
C5    H5    0.03654
C5    C78    0.03971
H1    C13    0.03657
C6    C7    0.06041
C6    C83    0.03549
C6    N31    0.04233
C7    H2    0.04028
C7    C82    0.02978
N2    C77    0.05799
N2    C159    0.05088
C8    C72    0.05830
C8    C81    0.03549
C8    C172    0.05032
C9    H7    0.04784
C9    N13    0.04565
C9    C184    0.05283
C10    H8    0.04536
C10    N22    0.05787
C10    C129    0.05068
C11    C12    0.06379
C11    N6    0.05450
C11    C88    0.03966
C12    C20    0.03659
C12    C178    0.05456
N3    C51    0.04380
N3    C123    0.05122
C13    C86    0.03966
C14    C15    0.06037
C14    C91    0.03549
C14    N32    0.04225
C15    H6    0.04024
C15    C90    0.02980
N4    C85    0.05787
N4    C219    0.05097
C16    C74    0.05830
C16    C89    0.03549
C16    C130    0.05025
C17    C160    0.05518
C17    C220    0.05588
C17    C232    0.05960
C17    C273    0.06147
N5    C47    0.04980
N5    C49    0.04982
N5    Cu3    0.04654
N6    Cu2    0.04635
C18    C19    0.06230
C18    N26    0.04478
C19    H10    0.04328
C19    C94    0.03106
C20    C21    0.06220
C20    N25    0.04497
C21    H9    0.04327
C21    C96    0.03102
C22    C23    0.03525
C22    N11    0.04980
C22    C58    0.05830
C23    C25    0.05832
C23    H11    0.03381
C24    C25    0.03521
C24    N11    0.04982
C24    C66    0.05830
C25    H12    0.03384
C26    H15    0.04808
C26    N21    0.04380
C26    C166    0.05419
C27    H16    0.04400
C27    N14    0.05799
C27    C286    0.05043
C28    C29    0.06396
C28    N12    0.05447
C28    C55    0.03971
C29    C43    0.03671
C29    C190    0.05410
N7    C84    0.04565
N7    C256    0.05036
C30    C38    0.06163
C30    H17    0.03654
C30    C53    0.03971
H13    C38    0.03657
C31    C32    0.06041
C31    C58    0.03549
C31    N29    0.04233
C32    H14    0.04028
C32    C57    0.02978
N8    C52    0.05799
N8    C117    0.05088
C33    C56    0.03549
C33    C97    0.05830
C33    C285    0.05034
C34    H19    0.04784
C34    N19    0.04565
C34    C154    0.05284
C35    H20    0.04536
C35    N16    0.05787
C35    C196    0.05066
C36    C37    0.06379
C36    N12    0.05450
C36    C63    0.03966
C37    C45    0.03659
C37    C207    0.05457
N9    C76    0.04380
N9    C201    0.05122
C38    C61    0.03966
C39    C40    0.06037
C39    C66    0.03549
C39    N30    0.04225
C40    H18    0.04024
C40    C65    0.02980
N10    C60    0.05787
N10    C280    0.05096
C41    C64    0.03549
C41    C99    0.05830
C41    C195    0.05026
C42    C118    0.05518
C42    C147    0.05962
C42    C262    0.06145
C42    C279    0.05590
N11    Cu4    0.04654
N12    Cu1    0.04635
C43    C44    0.06230
C43    N28    0.04478
C44    H22    0.04328
C44    C69    0.03106
C45    C46    0.06220
C45    N27    0.04497
C46    H21    0.04327
C46    C71    0.03102
C47    C48    0.03525
C47    C83    0.05830
C48    C50    0.05832
C48    H23    0.03381
C49    C50    0.03521
C49    C91    0.05830
C50    H24    0.03384
C51    H27    0.04808
C51    C177    0.05421
C52    H28    0.04400
C52    C112    0.05043
C53    C54    0.06396
C53    N18    0.05447
C54    C68    0.03671
C54    C183    0.05411
N13    C261    0.05038
C55    C63    0.06163
C55    H29    0.03654
H25    C63    0.03657
C56    C57    0.06041
C56    N29    0.04233
C57    H26    0.04028
N14    C226    0.05086
C58    C111    0.05033
C59    H31    0.04784
C59    C135    0.05286
C60    H32    0.04536
C60    C141    0.05068
C61    C62    0.06379
C61    N18    0.05450
C62    C70    0.03659
C62    C244    0.05456
N15    C148    0.05120
C64    C65    0.06037
C64    N30    0.04225
C65    H30    0.04024
N16    C105    0.05097
C66    C142    0.05024
C67    C106    0.05588
C67    C202    0.05960
C67    C225    0.05519
C67    C255    0.06147
N17    C97    0.04980
N17    C99    0.04982
N17    Cu4    0.04654
N18    Cu1    0.04635
C68    C69    0.06230
C68    N28    0.04478
C69    H34    0.04328
C70    C71    0.06220
C70    N27    0.04497
C71    H33    0.04327
C72    C73    0.03525
C72    N23    0.04980
C73    C75    0.05832
C73    H35    0.03381
C74    C75    0.03521
C74    N23    0.04982
C75    H36    0.03384
C76    H39    0.04808
C76    C208    0.05420
C77    H40    0.04400
C77    C267    0.05044
C78    C79    0.06396
C78    N24    0.05447
C79    C93    0.03671
C79    C153    0.05411
N19    C274    0.05036
C80    C88    0.06163
C80    H41    0.03654
H37    C88    0.03657
C81    C82    0.06041
C81    N31    0.04233
C82    H38    0.04028
N20    C214    0.05086
C83    C268    0.05032
C84    H43    0.04784
C84    C189    0.05285
C85    H44    0.04536
C85    C238    0.05066
C86    C87    0.06379
C86    N24    0.05450
C87    C95    0.03659
C87    C165    0.05458
N21    C231    0.05122
C89    C90    0.06037
C89    N32    0.04225
C90    H42    0.04024
N22    C250    0.05095
C91    C237    0.05026
C92    C124    0.05960
C92    C213    0.05519
C92    C249    0.05590
C92    C291    0.06147
N23    Cu3    0.04654
N24    Cu2    0.04635
C93    C94    0.06230
C93    N26    0.04478
C94    H46    0.04328
C95    C96    0.06220
C95    N25    0.04497
C96    H45    0.04327
C97    C98    0.03525
C98    C100    0.05832
C98    H47    0.03381
C99    C100    0.03521
C100    H48    0.03384
N25    Cu2    0.09630
N26    Cu2    0.09526
Cu1    N27    0.09630
Cu1    N28    0.09526
N29    Cu4    0.08745
N30    Cu4    0.08706
Cu3    N31    0.08745
Cu3    N32    0.08706
Sn101    Sn104    0.05014
Sn101    C105    0.06226
Sn101    Te4    0.06142
Sn102    Sn103    0.05014
Sn102    C105    0.06166
Sn102    Te1    0.06210
Sn103    C106    0.06230
Sn103    Te2    0.06144
Sn104    C106    0.06164
Sn104    Te3    0.06210
Te1    Mg2    0.08100
Te2    Mg2    0.08211
Te3    Mg1    0.08098
Te4    Mg1    0.08211
Sn107    Sn110    0.04888
Sn107    C111    0.05686
Sn107    Te8    0.06268
Sn108    Sn109    0.04888
Sn108    C111    0.06287
Sn108    Te5    0.05667
Sn109    C112    0.05690
Sn109    Te6    0.06271
Sn110    C112    0.06286
Sn110    Te7    0.05667
Te5    Mg4    0.08411
Te6    Mg4    0.07368
Te7    Mg3    0.08408
Te8    Mg3    0.07368
Sn113    Sn116    0.04988
Sn113    C117    0.06293
Sn113    Te12    0.06038
Sn114    Sn115    0.04988
Sn114    C117    0.06063
Sn114    Te9    0.06277
Sn115    C118    0.06297
Sn115    Te10    0.06040
Sn116    C118    0.06061
Sn116    Te11    0.06277
Te9    Mg6    0.07922
Te10    Mg6    0.08328
Te11    Mg5    0.07920
Te12    Mg5    0.08328
Sn119    Sn122    0.05132
Sn119    C123    0.05857
Sn119    Te16    0.05644
Sn120    Sn121    0.05132
Sn120    C123    0.05662
Sn120    Te13    0.05846
Sn121    C124    0.05861
Sn121    Te14    0.05648
Sn122    C124    0.05661
Sn122    Te15    0.05846
Te13    Mg8    0.07621
Te14    Mg8    0.07955
Te15    Mg7    0.07617
Te16    Mg7    0.07955
Sn125    Sn128    0.04891
Sn125    C129    0.05770
Sn125    Te20    0.06267
Sn126    Sn127    0.04891
Sn126    C129    0.06286
Sn126    Te17    0.05751
Sn127    C130    0.05773
Sn127    Te18    0.06269
Sn128    C130    0.06285
Sn128    Te19    0.05751
Te17    Mg10    0.08382
Te18    Mg10    0.07484
Te19    Mg9    0.08379
Te20    Mg9    0.07484
Sn131    Sn134    0.05137
Sn131    C135    0.06247
Sn131    Te24    0.04755
Sn132    Sn133    0.05137
Sn132    C135    0.04777
Sn132    Te21    0.06243
Sn133    C136    0.06252
Sn133    Te22    0.04759
Sn134    C136    0.04776
Sn134    Te23    0.06243
Te21    Mg12    0.06261
Te22    Mg12    0.08742
Te23    Mg11    0.06257
Te24    Mg11    0.08742
Sn137    Sn140    0.04891
Sn137    C141    0.06284
Sn137    Te28    0.05747
Sn138    Sn139    0.04891
Sn138    C141    0.05772
Sn138    Te25    0.06270
Sn139    C142    0.06288
Sn139    Te26    0.05748
Sn140    C142    0.05770
Sn140    Te27    0.06270
Te25    Mg14    0.07483
Te26    Mg14    0.08382
Te27    Mg13    0.07482
Te28    Mg13    0.08382
Sn143    Sn146    0.05132
Sn143    C147    0.05857
Sn143    Te32    0.05644
Sn144    Sn145    0.05132
Sn144    C147    0.05662
Sn144    Te29    0.05846
Sn145    C148    0.05861
Sn145    Te30    0.05648
Sn146    C148    0.05661
Sn146    Te31    0.05846
Te29    Mg16    0.07621
Te30    Mg16    0.07955
Te31    Mg15    0.07617
Te32    Mg15    0.07955
Sn149    Sn152    0.05137
Sn149    C153    0.04776
Sn149    Te36    0.06240
Sn150    Sn151    0.05137
Sn150    C153    0.06249
Sn150    Te33    0.04758
Sn151    C154    0.04778
Sn151    Te34    0.06242
Sn152    C154    0.06249
Sn152    Te35    0.04758
Te33    Mg18    0.08742
Te34    Mg18    0.06258
Te35    Mg17    0.08740
Te36    Mg17    0.06258
Sn155    Sn158    0.04988
Sn155    C159    0.06293
Sn155    Te40    0.06038
Sn156    Sn157    0.04988
Sn156    C159    0.06063
Sn156    Te37    0.06277
Sn157    C160    0.06297
Sn157    Te38    0.06040
Sn158    C160    0.06061
Sn158    Te39    0.06277
Te37    Mg20    0.07922
Te38    Mg20    0.08328
Te39    Mg19    0.07920
Te40    Mg19    0.08328
Sn161    Sn164    0.05255
Sn161    C165    0.06271
Sn161    Te44    0.04667
Sn162    Sn163    0.05255
Sn162    C165    0.04690
Sn162    Te41    0.06267
Sn163    C166    0.06275
Sn163    Te42    0.04668
Sn164    C166    0.04688
Sn164    Te43    0.06267
Te41    Mg22    0.06195
Te42    Mg22    0.08843
Te43    Mg21    0.06194
Te44    Mg21    0.08843
Sn167    Sn170    0.04888
Sn167    C171    0.05687
Sn167    Te48    0.06268
Sn168    Sn169    0.04888
Sn168    C171    0.06287
Sn168    Te45    0.05668
Sn169    C172    0.05690
Sn169    Te46    0.06271
Sn170    C172    0.06286
Sn170    Te47    0.05668
Te45    Mg24    0.08411
Te46    Mg24    0.07367
Te47    Mg23    0.08408
Te48    Mg23    0.07367
Sn173    Sn176    0.05256
Sn173    C177    0.04688
Sn173    Te52    0.06264
Sn174    Sn175    0.05256
Sn174    C177    0.06272
Sn174    Te49    0.04671
Sn175    C178    0.04691
Sn175    Te50    0.06267
Sn176    C178    0.06272
Sn176    Te51    0.04671
Te49    Mg26    0.08845
Te50    Mg26    0.06197
Te51    Mg25    0.08842
Te52    Mg25    0.06197
Sn179    Sn182    0.05136
Sn179    C183    0.06248
Sn179    Te56    0.04754
Sn180    Sn181    0.05136
Sn180    C183    0.04778
Sn180    Te53    0.06243
Sn181    C184    0.06252
Sn181    Te54    0.04755
Sn182    C184    0.04776
Sn182    Te55    0.06243
Te53    Mg28    0.06257
Te54    Mg28    0.08742
Te55    Mg27    0.06257
Te56    Mg27    0.08742
Sn185    Sn188    0.05137
Sn185    C189    0.04775
Sn185    Te60    0.06240
Sn186    Sn187    0.05137
Sn186    C189    0.06249
Sn186    Te57    0.04758
Sn187    C190    0.04778
Sn187    Te58    0.06243
Sn188    C190    0.06249
Sn188    Te59    0.04758
Te57    Mg30    0.08744
Te58    Mg30    0.06259
Te59    Mg29    0.08740
Te60    Mg29    0.06259
Sn191    Sn194    0.04891
Sn191    C195    0.05770
Sn191    Te64    0.06267
Sn192    Sn193    0.04891
Sn192    C195    0.06286
Sn192    Te61    0.05751
Sn193    C196    0.05773
Sn193    Te62    0.06270
Sn194    C196    0.06285
Sn194    Te63    0.05751
Te61    Mg32    0.08383
Te62    Mg32    0.07485
Te63    Mg31    0.08380
Te64    Mg31    0.07485
Sn197    Sn200    0.05132
Sn197    C201    0.05660
Sn197    Te68    0.05843
Sn198    Sn199    0.05132
Sn198    C201    0.05859
Sn198    Te65    0.05647
Sn199    C202    0.05664
Sn199    Te66    0.05847
Sn200    C202    0.05858
Sn200    Te67    0.05647
Te65    Mg34    0.07956
Te66    Mg34    0.07619
Te67    Mg33    0.07952
Te68    Mg33    0.07619
Sn203    Sn206    0.05255
Sn203    C207    0.04688
Sn203    Te72    0.06264
Sn204    Sn205    0.05255
Sn204    C207    0.06272
Sn204    Te69    0.04671
Sn205    C208    0.04691
Sn205    Te70    0.06267
Sn206    C208    0.06272
Sn206    Te71    0.04671
Te69    Mg36    0.08844
Te70    Mg36    0.06195
Te71    Mg35    0.08842
Te72    Mg35    0.06195
Sn209    Sn212    0.04988
Sn209    C213    0.06293
Sn209    Te76    0.06039
Sn210    Sn211    0.04988
Sn210    C213    0.06062
Sn210    Te73    0.06277
Sn211    C214    0.06297
Sn211    Te74    0.06042
Sn212    C214    0.06061
Sn212    Te75    0.06277
Te73    Mg38    0.07924
Te74    Mg38    0.08329
Te75    Mg37    0.07920
Te76    Mg37    0.08329
Sn215    Sn218    0.05014
Sn215    C219    0.06163
Sn215    Te80    0.06206
Sn216    Sn217    0.05014
Sn216    C219    0.06229
Sn216    Te77    0.06146
Sn217    C220    0.06167
Sn217    Te78    0.06208
Sn218    C220    0.06227
Sn218    Te79    0.06146
Te77    Mg40    0.08210
Te78    Mg40    0.08101
Te79    Mg39    0.08208
Te80    Mg39    0.08101
Sn221    Sn224    0.04988
Sn221    C225    0.06060
Sn221    Te84    0.06274
Sn222    Sn223    0.04988
Sn222    C225    0.06295
Sn222    Te81    0.06042
Sn223    C226    0.06064
Sn223    Te82    0.06277
Sn224    C226    0.06293
Sn224    Te83    0.06042
Te81    Mg42    0.08330
Te82    Mg42    0.07923
Te83    Mg41    0.08326
Te84    Mg41    0.07923
Sn227    Sn230    0.05132
Sn227    C231    0.05857
Sn227    Te88    0.05644
Sn228    Sn229    0.05132
Sn228    C231    0.05662
Sn228    Te85    0.05846
Sn229    C232    0.05861
Sn229    Te86    0.05648
Sn230    C232    0.05661
Sn230    Te87    0.05846
Te85    Mg44    0.07621
Te86    Mg44    0.07955
Te87    Mg43    0.07617
Te88    Mg43    0.07955
Sn233    Sn236    0.04891
Sn233    C237    0.05770
Sn233    Te92    0.06267
Sn234    Sn235    0.04891
Sn234    C237    0.06286
Sn234    Te89    0.05751
Sn235    C238    0.05773
Sn235    Te90    0.06270
Sn236    C238    0.06285
Sn236    Te91    0.05751
Te89    Mg46    0.08383
Te90    Mg46    0.07485
Te91    Mg45    0.08380
Te92    Mg45    0.07485
Sn239    Sn242    0.05256
Sn239    C243    0.06270
Sn239    Te96    0.04669
Sn240    Sn241    0.05256
Sn240    C243    0.04689
Sn240    Te93    0.06267
Sn241    C244    0.06275
Sn241    Te94    0.04672
Sn242    C244    0.04688
Sn242    Te95    0.06267
Te93    Mg48    0.06198
Te94    Mg48    0.08844
Te95    Mg47    0.06195
Te96    Mg47    0.08844
Sn245    Sn248    0.05014
Sn245    C249    0.06226
Sn245    Te100    0.06143
Sn246    Sn247    0.05014
Sn246    C249    0.06165
Sn246    Te97    0.06210
Sn247    C250    0.06230
Sn247    Te98    0.06146
Sn248    C250    0.06164
Sn248    Te99    0.06210
Te97    Mg50    0.08102
Te98    Mg50    0.08211
Te99    Mg49    0.08098
Te100    Mg49    0.08211
Sn251    Sn254    0.05164
Sn251    C255    0.05862
Sn251    Te104    0.05646
Sn252    Sn253    0.05164
Sn252    C255    0.05664
Sn252    Te101    0.05851
Sn253    C256    0.05865
Sn253    Te102    0.05650
Sn254    C256    0.05662
Sn254    Te103    0.05851
Te101    Mg52    0.07636
Te102    Mg52    0.07974
Te103    Mg51    0.07633
Te104    Mg51    0.07974
Sn257    Sn260    0.05164
Sn257    C261    0.05662
Sn257    Te108    0.05848
Sn258    Sn259    0.05164
Sn258    C261    0.05863
Sn258    Te105    0.05649
Sn259    C262    0.05665
Sn259    Te106    0.05851
Sn260    C262    0.05862
Sn260    Te107    0.05649
Te105    Mg54    0.07975
Te106    Mg54    0.07635
Te107    Mg53    0.07971
Te108    Mg53    0.07635
Sn263    Sn266    0.04888
Sn263    C267    0.06285
Sn263    Te112    0.05663
Sn264    Sn265    0.04888
Sn264    C267    0.05689
Sn264    Te109    0.06272
Sn265    C268    0.06289
Sn265    Te110    0.05665
Sn266    C268    0.05687
Sn266    Te111    0.06272
Te109    Mg56    0.07366
Te110    Mg56    0.08411
Te111    Mg55    0.07365
Te112    Mg55    0.08411
Sn269    Sn272    0.05164
Sn269    C273    0.05862
Sn269    Te116    0.05646
Sn270    Sn271    0.05164
Sn270    C273    0.05664
Sn270    Te113    0.05851
Sn271    C274    0.05865
Sn271    Te114    0.05650
Sn272    C274    0.05662
Sn272    Te115    0.05851
Te113    Mg58    0.07636
Te114    Mg58    0.07974
Te115    Mg57    0.07633
Te116    Mg57    0.07974
Sn275    Sn278    0.05014
Sn275    C279    0.06163
Sn275    Te120    0.06206
Sn276    Sn277    0.05014
Sn276    C279    0.06228
Sn276    Te117    0.06146
Sn277    C280    0.06167
Sn277    Te118    0.06210
Sn278    C280    0.06227
Sn278    Te119    0.06146
Te117    Mg60    0.08212
Te118    Mg60    0.08101
Te119    Mg59    0.08208
Te120    Mg59    0.08101
Sn281    Sn284    0.04888
Sn281    C285    0.06285
Sn281    Te124    0.05664
Sn282    Sn283    0.04888
Sn282    C285    0.05688
Sn282    Te121    0.06272
Sn283    C286    0.06289
Sn283    Te122    0.05668
Sn284    C286    0.05687
Sn284    Te123    0.06272
Te121    Mg62    0.07369
Te122    Mg62    0.08411
Te123    Mg61    0.07365
Te124    Mg61    0.08411
Sn287    Sn290    0.05164
Sn287    C291    0.05862
Sn287    Te128    0.05646
Sn288    Sn289    0.05164
Sn288    C291    0.05664
Sn288    Te125    0.05851
Sn289    C292    0.05865
Sn289    Te126    0.05650
Sn290    C292    0.05662
Sn290    Te127    0.05851
Te125    Mg64    0.07636
Te126    Mg64    0.07974
Te127    Mg63    0.07633
Te128    Mg63    0.07974
