data_new_xtal_PM
_symmetry_space_group_name_H-M    'P1'
_cell_length_a    43.903200
_cell_length_b    23.500300
_cell_length_c    21.378100
_cell_angle_alpha    90.000000
_cell_angle_beta    90.000000
_cell_angle_gamma    90.000000
_symmetry_Int_Tables_number 1

loop_
_symmetry_equiv_pos_as_xyz
'x,y,z'

loop_
_atom_site_label
_atom_site_type_symbol
_atom_site_fract_x
_atom_site_fract_y
_atom_site_fract_z
C1    C    0.354180    0.388150    0.680860
C2    C    0.148220    0.420380    0.035600
C3    C    0.435950    0.607240    0.538220
C4    C    0.444850    0.615300    0.600850
N1    N    0.330230    0.643950    0.793400
C5    C    0.594240    0.589250    0.517790
H1    H    0.613070    0.579260    0.426410
C6    C    0.975390    0.265560    0.030830
C7    C    0.985050    0.323260    0.047140
N2    N    0.848530    0.458640    0.992230
C8    C    0.055000    0.248190    0.023100
H2    H    0.970760    0.359410    0.057810
H3    H    0.356730    0.420960    0.645720
H4    H    0.163340    0.419210    0.075360
C9    C    0.350530    0.395810    0.287550
C10    C    0.146750    0.866410    0.035170
C11    C    0.435970    0.609720    0.436940
C12    C    0.444960    0.620800    0.374940
N3    N    0.331770    0.647690    0.178080
C13    C    0.594210    0.590660    0.456190
H5    H    0.613120    0.576530    0.546860
C14    C    0.975410    0.023590    0.029860
C15    C    0.985050    0.965630    0.045080
N4    N    0.848220    0.831660    0.989060
C16    C    0.054970    0.041040    0.022380
H6    H    0.970760    0.929300    0.054920
H7    H    0.350710    0.431870    0.319090
H8    H    0.160070    0.863860    0.077560
C17    C    0.761750    0.644910    0.986940
C18    C    0.953320    0.144600    0.024410
H9    H    0.974890    0.144570    0.043460
N5    N    0.453260    0.619250    0.487920
C19    C    0.475270    0.624670    0.619080
C20    C    0.484380    0.642770    0.677720
C21    C    0.475300    0.632350    0.357970
C22    C    0.484400    0.654440    0.300990
H10    H    0.469970    0.668580    0.263190
H11    H    0.469960    0.654520    0.716500
C23    C    0.063950    0.808970    0.513740
C24    C    0.092770    0.826080    0.496050
C25    C    0.063950    0.901790    0.513500
C26    C    0.092770    0.884660    0.495970
H12    H    0.111840    0.799030    0.484770
H13    H    0.111840    0.911720    0.484640
C27    C    0.645820    0.611850    0.180860
C28    C    0.851780    0.579620    0.535600
C29    C    0.564050    0.392760    0.038220
C30    C    0.555150    0.384700    0.100850
N6    N    0.669770    0.356050    0.293400
C31    C    0.405760    0.410750    0.017790
H14    H    0.386930    0.420740    0.926410
C32    C    0.024610    0.734440    0.530830
C33    C    0.014950    0.676740    0.547140
N7    N    0.151470    0.541360    0.492230
C34    C    0.945000    0.751810    0.523100
H15    H    0.029240    0.640590    0.557810
H16    H    0.643270    0.579040    0.145720
H17    H    0.836660    0.580790    0.575360
C35    C    0.649470    0.604190    0.787550
C36    C    0.853250    0.133590    0.535170
C37    C    0.564030    0.390280    0.936940
C38    C    0.555040    0.379200    0.874940
N8    N    0.668230    0.352310    0.678080
C39    C    0.405790    0.409340    0.956190
H18    H    0.386880    0.423470    0.046860
C40    C    0.024590    0.976410    0.529860
C41    C    0.014950    0.034370    0.545080
N9    N    0.151780    0.168340    0.489060
C42    C    0.945030    0.958960    0.522380
H19    H    0.029240    0.070700    0.554920
H20    H    0.649290    0.568130    0.819090
H21    H    0.839930    0.136140    0.577560
C43    C    0.238250    0.355090    0.486940
C44    C    0.046680    0.855400    0.524410
H22    H    0.025110    0.855430    0.543460
N10    N    0.546740    0.380750    0.987920
C45    C    0.524730    0.375330    0.119080
C46    C    0.515620    0.357230    0.177720
C47    C    0.524700    0.367650    0.857970
C48    C    0.515600    0.345560    0.800990
H23    H    0.530030    0.331420    0.763190
H24    H    0.530040    0.345480    0.216500
C49    C    0.936050    0.191030    0.013740
C50    C    0.907230    0.173920    0.996050
C51    C    0.936050    0.098210    0.013500
C52    C    0.907230    0.115340    0.995970
H25    H    0.888160    0.200970    0.984770
H26    H    0.888160    0.088280    0.984640
C53    C    0.354180    0.611850    0.180860
C54    C    0.148220    0.579620    0.535600
C55    C    0.435950    0.392760    0.038220
C56    C    0.444850    0.384700    0.100850
N11    N    0.330230    0.356050    0.293400
C57    C    0.594240    0.410750    0.017790
H27    H    0.613070    0.420740    0.926410
C58    C    0.975390    0.734440    0.530830
C59    C    0.985050    0.676740    0.547140
N12    N    0.848530    0.541360    0.492230
C60    C    0.055000    0.751810    0.523100
H28    H    0.970760    0.640590    0.557810
H29    H    0.356730    0.579040    0.145720
H30    H    0.163340    0.580790    0.575360
C61    C    0.350530    0.604190    0.787550
C62    C    0.146750    0.133590    0.535170
C63    C    0.435970    0.390280    0.936940
C64    C    0.444960    0.379200    0.874940
N13    N    0.331770    0.352310    0.678080
C65    C    0.594210    0.409340    0.956190
H31    H    0.613120    0.423470    0.046860
C66    C    0.975410    0.976410    0.529860
C67    C    0.985050    0.034370    0.545080
N14    N    0.848220    0.168340    0.489060
C68    C    0.054970    0.958960    0.522380
H32    H    0.970760    0.070700    0.554920
H33    H    0.350710    0.568130    0.819090
H34    H    0.160070    0.136140    0.577560
C69    C    0.761750    0.355090    0.486940
C70    C    0.953320    0.855400    0.524410
H35    H    0.974890    0.855430    0.543460
N15    N    0.453260    0.380750    0.987920
C71    C    0.475270    0.375330    0.119080
C72    C    0.484380    0.357230    0.177720
C73    C    0.475300    0.367650    0.857970
C74    C    0.484400    0.345560    0.800990
H36    H    0.469970    0.331420    0.763190
H37    H    0.469960    0.345480    0.216500
C75    C    0.063950    0.191030    0.013740
C76    C    0.092770    0.173920    0.996050
C77    C    0.063950    0.098210    0.013500
C78    C    0.092770    0.115340    0.995970
H38    H    0.111840    0.200970    0.984770
H39    H    0.111840    0.088280    0.984640
C79    C    0.645820    0.388150    0.680860
C80    C    0.851780    0.420380    0.035600
C81    C    0.564050    0.607240    0.538220
C82    C    0.555150    0.615300    0.600850
N16    N    0.669770    0.643950    0.793400
C83    C    0.405760    0.589250    0.517790
H40    H    0.386930    0.579260    0.426410
C84    C    0.024610    0.265560    0.030830
C85    C    0.014950    0.323260    0.047140
N17    N    0.151470    0.458640    0.992230
C86    C    0.945000    0.248190    0.023100
H41    H    0.029240    0.359410    0.057810
H42    H    0.643270    0.420960    0.645720
H43    H    0.836660    0.419210    0.075360
C87    C    0.649470    0.395810    0.287550
C88    C    0.853250    0.866410    0.035170
C89    C    0.564030    0.609720    0.436940
C90    C    0.555040    0.620800    0.374940
N18    N    0.668230    0.647690    0.178080
C91    C    0.405790    0.590660    0.456190
H44    H    0.386880    0.576530    0.546860
C92    C    0.024590    0.023590    0.029860
C93    C    0.014950    0.965630    0.045080
N19    N    0.151780    0.831660    0.989060
C94    C    0.945030    0.041040    0.022380
H45    H    0.029240    0.929300    0.054920
H46    H    0.649290    0.431870    0.319090
H47    H    0.839930    0.863860    0.077560
C95    C    0.238250    0.644910    0.986940
C96    C    0.046680    0.144600    0.024410
H48    H    0.025110    0.144570    0.043460
N20    N    0.546740    0.619250    0.487920
C97    C    0.524730    0.624670    0.619080
C98    C    0.515620    0.642770    0.677720
C99    C    0.524700    0.632350    0.357970
C100    C    0.515600    0.654440    0.300990
H49    H    0.530030    0.668580    0.263190
H50    H    0.530040    0.654520    0.716500
C101    C    0.936050    0.808970    0.513740
C102    C    0.907230    0.826080    0.496050
C103    C    0.936050    0.901790    0.513500
C104    C    0.907230    0.884660    0.495970
H51    H    0.888160    0.799030    0.484770
H52    H    0.888160    0.911720    0.484640
C105    C    0.500000    0.619180    0.392250
H53    H    0.500000    0.597240    0.434300
C106    C    0.500000    0.613690    0.583920
H54    H    0.500000    0.595110    0.539980
C107    C    0.500000    0.380820    0.892250
H55    H    0.500000    0.402760    0.934300
C108    C    0.500000    0.386310    0.083920
H56    H    0.500000    0.404890    0.039980
N21    N    0.000000    0.767510    0.521120
N22    N    0.000000    0.943200    0.520730
N23    N    0.000000    0.232490    0.021120
N24    N    0.000000    0.056800    0.020730
Sn109    C    0.202043    0.575042    0.933830
Sn110    C    0.208271    0.568425    0.046586
Sn111    C    0.186721    0.523460    0.048417
Sn112    C    0.180492    0.530077    0.935661
C113    C    0.215785    0.593895    0.989292
C114    C    0.172969    0.504579    0.992925
Te1    O    0.222125    0.587573    0.101722
Te2    O    0.179069    0.497682    0.105357
Te3    O    0.166638    0.510929    0.880525
Te4    O    0.209705    0.600789    0.876911
Mg1    Mg    0.184650    0.559610    0.814869
Mg2    Mg    0.204124    0.538861    0.167399
Sn115    C    0.269508    0.592318    0.903826
Sn116    C    0.272989    0.695433    0.909388
Sn117    C    0.296223    0.694754    0.863258
Sn118    C    0.292742    0.591639    0.857696
C119    C    0.259789    0.644201    0.929340
C120    C    0.305949    0.642845    0.837711
Te5    O    0.263121    0.747031    0.935170
Te6    O    0.309542    0.745659    0.842945
Te7    O    0.302610    0.540042    0.831914
Te8    O    0.256182    0.541440    0.924106
Mg3    Mg    0.277419    0.482353    0.874865
Mg4    Mg    0.288304    0.804746    0.892186
Sn121    C    0.602684    0.346414    0.148509
Sn122    C    0.577938    0.428168    0.196167
Sn123    C    0.601299    0.430764    0.241943
Sn124    C    0.626045    0.349010    0.194285
C125    C    0.578799    0.386010    0.149758
C126    C    0.625205    0.391154    0.240698
Te9    O    0.553980    0.467517    0.197006
Te10    O    0.600684    0.472715    0.288460
Te11    O    0.650003    0.309661    0.193445
Te12    O    0.603307    0.304503    0.101989
Mg5    Mg    0.640664    0.260791    0.120721
Mg6    Mg    0.563326    0.516427    0.269728
Sn127    C    0.402277    0.578897    0.227924
Sn128    C    0.374449    0.655127    0.279329
Sn129    C    0.396818    0.656915    0.327194
Sn130    C    0.424646    0.580685    0.275789
C131    C    0.377335    0.616115    0.230030
C132    C    0.421776    0.619671    0.325105
Te13    O    0.349450    0.692124    0.280997
Te14    O    0.394150    0.695658    0.376673
Te15    O    0.449645    0.543688    0.274121
Te16    O    0.404933    0.540149    0.178484
Mg7    Mg    0.443041    0.498750    0.197189
Mg8    Mg    0.356041    0.737057    0.357968
Sn133    C    0.877514    0.335133    0.078330
Sn134    C    0.896227    0.375998    0.981193
Sn135    C    0.919192    0.333596    0.978296
Sn136    C    0.900479    0.292731    0.075434
C137    C    0.875551    0.376472    0.031206
C138    C    0.921166    0.292230    0.025451
Te17    O    0.894070    0.417478    0.934356
Te18    O    0.939977    0.332751    0.928606
Te19    O    0.902636    0.251251    0.122271
Te20    O    0.856749    0.336000    0.128018
Mg9    Mg    0.869094    0.270496    0.180151
Mg10    Mg    0.927632    0.398256    0.876472
Sn139    C    0.396825    0.343088    0.827195
Sn140    C    0.424653    0.419319    0.775790
Sn141    C    0.402282    0.421112    0.727930
Sn142    C    0.374454    0.344882    0.779335
C143    C    0.421762    0.380319    0.825100
C144    C    0.377323    0.383869    0.730020
Te21    O    0.449649    0.456322    0.774128
Te22    O    0.404923    0.459920    0.678506
Te23    O    0.349458    0.307879    0.780998
Te24    O    0.394177    0.304321    0.876619
Mg11    Mg    0.356062    0.262938    0.857927
Mg12    Mg    0.443038    0.501304    0.697198
Sn145    C    0.901801    0.993905    0.076285
Sn146    C    0.918442    0.957591    0.975443
Sn147    C    0.895853    0.914498    0.978474
Sn148    C    0.879212    0.950812    0.079316
C149    C    0.921260    0.996990    0.024386
C150    C    0.876381    0.911394    0.030406
Te25    O    0.937991    0.961042    0.923806
Te26    O    0.892856    0.874900    0.929900
Te27    O    0.859663    0.947360    0.130953
Te28    O    0.904810    0.033466    0.124853
Mg13    Mg    0.872819    0.010980    0.185006
Mg14    Mg    0.924847    0.897386    0.869748
Sn151    C    0.577941    0.571838    0.696165
Sn152    C    0.602685    0.653593    0.648504
Sn153    C    0.626046    0.650998    0.694279
Sn154    C    0.601302    0.569243    0.741939
C155    C    0.578796    0.613979    0.649764
C156    C    0.625199    0.608828    0.740709
Te29    O    0.603327    0.695523    0.601961
Te30    O    0.650024    0.690301    0.693429
Te31    O    0.600660    0.527313    0.788482
Te32    O    0.553983    0.532533    0.696989
Mg15    Mg    0.563308    0.483627    0.769713
Mg16    Mg    0.640699    0.739207    0.620705
Sn157    C    0.398696    0.569245    0.741949
Sn158    C    0.373950    0.651000    0.694291
Sn159    C    0.397309    0.653590    0.648510
Sn160    C    0.422054    0.571836    0.696168
C161    C    0.374806    0.608830    0.740688
C162    C    0.421214    0.613979    0.649753
Te33    O    0.349989    0.690342    0.693445
Te34    O    0.396667    0.695482    0.601931
Te35    O    0.446015    0.532493    0.697014
Te36    O    0.399327    0.527352    0.788488
Mg17    Mg    0.436678    0.483626    0.769741
Mg18    Mg    0.359315    0.739208    0.620677
Sn163    C    0.625548    0.344879    0.779327
Sn164    C    0.597722    0.421109    0.727918
Sn165    C    0.575353    0.419322    0.775782
Sn166    C    0.603179    0.343092    0.827191
C167    C    0.622669    0.383875    0.730036
C168    C    0.578230    0.380312    0.825116
Te37    O    0.595056    0.459900    0.678478
Te38    O    0.550364    0.456342    0.774170
Te39    O    0.605845    0.304302    0.876630
Te40    O    0.650535    0.307900    0.780955
Mg19    Mg    0.643951    0.262939    0.857897
Mg20    Mg    0.556948    0.501302    0.697227
Sn169    C    0.793709    0.721333    0.931431
Sn170    C    0.796358    0.714339    0.044753
Sn171    C    0.817882    0.759364    0.045988
Sn172    C    0.815234    0.766357    0.932667
C173    C    0.784417    0.695646    0.987472
C174    C    0.827181    0.785081    0.989919
Te41    O    0.786928    0.688396    0.100468
Te42    O    0.829931    0.778408    0.102922
Te43    O    0.824663    0.792300    0.876951
Te44    O    0.781651    0.702316    0.874527
Mg21    Mg    0.801652    0.751264    0.811571
Mg22    Mg    0.809930    0.729461    0.165878
Sn175    C    0.879207    0.049191    0.579315
Sn176    C    0.895847    0.085508    0.478473
Sn177    C    0.918439    0.042421    0.475445
Sn178    C    0.901800    0.006104    0.576287
C179    C    0.876391    0.088595    0.530403
C180    C    0.921266    0.002991    0.524387
Te45    O    0.892845    0.125070    0.429860
Te46    O    0.938008    0.038974    0.423845
Te47    O    0.904801    0.966542    0.624900
Te48    O    0.859657    0.052659    0.630908
Mg23    Mg    0.872805    0.989046    0.685008
Mg24    Mg    0.924861    0.102587    0.369746
Sn181    C    0.202043    0.424958    0.433830
Sn182    C    0.208271    0.431575    0.546586
Sn183    C    0.186721    0.476540    0.548417
Sn184    C    0.180492    0.469923    0.435661
C185    C    0.215785    0.406105    0.489292
C186    C    0.172969    0.495421    0.492925
Te49    O    0.222125    0.412427    0.601722
Te50    O    0.179069    0.502318    0.605357
Te51    O    0.166638    0.489071    0.380525
Te52    O    0.209705    0.399211    0.376911
Mg25    Mg    0.184650    0.440390    0.314869
Mg26    Mg    0.204124    0.461139    0.667399
Sn187    C    0.793709    0.278667    0.431431
Sn188    C    0.796358    0.285661    0.544753
Sn189    C    0.817882    0.240636    0.545988
Sn190    C    0.815234    0.233643    0.432667
C191    C    0.784417    0.304354    0.487472
C192    C    0.827181    0.214919    0.489919
Te53    O    0.786928    0.311604    0.600468
Te54    O    0.829931    0.221592    0.602922
Te55    O    0.824663    0.207700    0.376951
Te56    O    0.781651    0.297684    0.374527
Mg27    Mg    0.801652    0.248736    0.311571
Mg28    Mg    0.809930    0.270539    0.665878
Sn193    C    0.603175    0.656912    0.327195
Sn194    C    0.575347    0.580681    0.275790
Sn195    C    0.597718    0.578888    0.227930
Sn196    C    0.625546    0.655118    0.279335
C197    C    0.578238    0.619681    0.325100
C198    C    0.622677    0.616131    0.230020
Te57    O    0.550351    0.543678    0.274128
Te58    O    0.595077    0.540080    0.178506
Te59    O    0.650542    0.692121    0.280998
Te60    O    0.605823    0.695679    0.376619
Mg29    Mg    0.643938    0.737062    0.357927
Mg30    Mg    0.556962    0.498696    0.197198
Sn199    C    0.707256    0.591638    0.857688
Sn200    C    0.703773    0.694753    0.863246
Sn201    C    0.727007    0.695434    0.909376
Sn202    C    0.730490    0.592319    0.903817
C203    C    0.694056    0.642849    0.837733
C204    C    0.740217    0.644196    0.929361
Te61    O    0.690443    0.745671    0.842992
Te62    O    0.736865    0.747011    0.935215
Te63    O    0.743820    0.541402    0.924072
Te64    O    0.697390    0.540083    0.831884
Mg31    Mg    0.722572    0.482354    0.874826
Mg32    Mg    0.711682    0.804740    0.892273
Sn205    C    0.705962    0.696912    0.115074
Sn206    C    0.701060    0.594304    0.104741
Sn207    C    0.724525    0.594196    0.059102
Sn208    C    0.729427    0.696803    0.069435
C209    C    0.691939    0.645673    0.132401
C210    C    0.738558    0.645462    0.041747
Te65    O    0.686909    0.543353    0.122378
Te66    O    0.733793    0.543159    0.031134
Te67    O    0.743577    0.747754    0.051798
Te68    O    0.696684    0.747929    0.143005
Mg33    Mg    0.722901    0.805943    0.103256
Mg34    Mg    0.707577    0.485144    0.070883
Sn211    C    0.819512    0.469926    0.435661
Sn212    C    0.813286    0.476546    0.548417
Sn213    C    0.791732    0.431587    0.546587
Sn214    C    0.797959    0.424967    0.433830
C215    C    0.827022    0.495408    0.492929
C216    C    0.784210    0.406086    0.489287
Te69    O    0.820945    0.502280    0.605381
Te70    O    0.777854    0.412450    0.601697
Te71    O    0.790299    0.399233    0.376867
Te72    O    0.833372    0.489079    0.380571
Mg35    Mg    0.815363    0.440418    0.314871
Mg36    Mg    0.795863    0.461111    0.667398
Sn217    C    0.298939    0.594312    0.104741
Sn218    C    0.294039    0.696920    0.115077
Sn219    C    0.270574    0.696813    0.069437
Sn220    C    0.275474    0.594205    0.059101
C221    C    0.308062    0.645660    0.132400
C222    C    0.261443    0.645440    0.041745
Te73    O    0.303317    0.747980    0.142987
Te74    O    0.256435    0.747754    0.051741
Te75    O    0.266195    0.543145    0.031191
Te76    O    0.313085    0.543399    0.122405
Mg37    Mg    0.292420    0.485172    0.070949
Mg38    Mg    0.277100    0.805982    0.103197
Sn223    C    0.098199    0.993905    0.076285
Sn224    C    0.081558    0.957591    0.975443
Sn225    C    0.104147    0.914498    0.978474
Sn226    C    0.120788    0.950812    0.079316
C227    C    0.078740    0.996990    0.024386
C228    C    0.123619    0.911394    0.030406
Te77    O    0.062009    0.961042    0.923806
Te78    O    0.107144    0.874900    0.929900
Te79    O    0.140337    0.947360    0.130953
Te80    O    0.095190    0.033466    0.124853
Mg39    Mg    0.127181    0.010980    0.185006
Mg40    Mg    0.075153    0.897386    0.869748
Sn229    C    0.203642    0.714341    0.044744
Sn230    C    0.206292    0.721331    0.931422
Sn231    C    0.184767    0.766356    0.932656
Sn232    C    0.182118    0.759366    0.045978
C233    C    0.215583    0.695645    0.987487
C234    C    0.172818    0.785080    0.989944
Te81    O    0.218355    0.702339    0.874475
Te82    O    0.175351    0.792349    0.876963
Te83    O    0.170055    0.778358    0.102925
Te84    O    0.213069    0.688380    0.100413
Mg41    Mg    0.190067    0.729407    0.165837
Mg42    Mg    0.198353    0.751322    0.811540
Sn235    C    0.275472    0.405795    0.559092
Sn236    C    0.270570    0.303187    0.569425
Sn237    C    0.294035    0.303079    0.615065
Sn238    C    0.298937    0.405687    0.604732
C239    C    0.261449    0.354556    0.541766
C240    C    0.308068    0.354346    0.632420
Te85    O    0.256420    0.252236    0.551788
Te86    O    0.303303    0.252042    0.643032
Te87    O    0.313087    0.456637    0.622369
Te88    O    0.266194    0.456813    0.531162
Mg43    Mg    0.292411    0.514827    0.570911
Mg44    Mg    0.277087    0.194028    0.603284
Sn241    C    0.103773    0.375993    0.981201
Sn242    C    0.122488    0.335131    0.078338
Sn243    C    0.099523    0.292729    0.075443
Sn244    C    0.080809    0.333591    0.978306
C245    C    0.124447    0.376477    0.031193
C246    C    0.078830    0.292239    0.025429
Te89    O    0.143250    0.335986    0.128074
Te90    O    0.097337    0.251271    0.122294
Te91    O    0.060047    0.332736    0.928570
Te92    O    0.105948    0.417454    0.934391
Mg45    Mg    0.072403    0.398242    0.876480
Mg46    Mg    0.130883    0.270483    0.180205
Sn247    C    0.730492    0.407682    0.403826
Sn248    C    0.727011    0.304567    0.409388
Sn249    C    0.703777    0.305246    0.363258
Sn250    C    0.707258    0.408361    0.357696
C251    C    0.740211    0.355799    0.429340
C252    C    0.694051    0.357155    0.337711
Te93    O    0.736879    0.252969    0.435170
Te94    O    0.690458    0.254341    0.342945
Te95    O    0.697390    0.459958    0.331914
Te96    O    0.743818    0.458560    0.424106
Mg47    Mg    0.722581    0.517647    0.374865
Mg48    Mg    0.711696    0.195254    0.392186
Sn253    C    0.272990    0.304575    0.409386
Sn254    C    0.269507    0.407690    0.403827
Sn255    C    0.292741    0.408371    0.357698
Sn256    C    0.296224    0.305256    0.363256
C257    C    0.259790    0.355785    0.429341
C258    C    0.305950    0.357133    0.337713
Te97    O    0.256176    0.458607    0.424081
Te98    O    0.302598    0.459948    0.331858
Te99    O    0.309554    0.254338    0.343002
Te100    O    0.263123    0.253019    0.435190
Mg49    Mg    0.288305    0.195290    0.392247
Mg50    Mg    0.277416    0.517677    0.374800
Sn259    C    0.896227    0.624007    0.481201
Sn260    C    0.877512    0.664869    0.578338
Sn261    C    0.900477    0.707271    0.575443
Sn262    C    0.919191    0.666409    0.478306
C263    C    0.875553    0.623523    0.531193
C264    C    0.921170    0.707761    0.525429
Te101    O    0.856750    0.664014    0.628074
Te102    O    0.902663    0.748729    0.622294
Te103    O    0.939953    0.667264    0.428570
Te104    O    0.894052    0.582546    0.434391
Mg51    Mg    0.927597    0.601758    0.376480
Mg52    Mg    0.869117    0.729517    0.680205
Sn265    C    0.080807    0.666417    0.478302
Sn266    C    0.099520    0.707282    0.575440
Sn267    C    0.122482    0.664876    0.578341
Sn268    C    0.103769    0.624011    0.481203
C269    C    0.078837    0.707746    0.525437
C270    C    0.124455    0.623509    0.531187
Te105    O    0.097359    0.748757    0.622282
Te106    O    0.143235    0.663973    0.628086
Te107    O    0.105929    0.582536    0.434361
Te108    O    0.060051    0.667301    0.428599
Mg53    Mg    0.072389    0.601783    0.376478
Mg54    Mg    0.130897    0.729492    0.680207
Sn271    C    0.182113    0.240631    0.545978
Sn272    C    0.184761    0.233638    0.432657
Sn273    C    0.206289    0.278656    0.431422
Sn274    C    0.203641    0.285649    0.544743
C275    C    0.172827    0.214933    0.489939
C276    C    0.215589    0.304373    0.487491
Te109    O    0.175336    0.207688    0.376942
Te110    O    0.218376    0.297637    0.374496
Te111    O    0.213066    0.311599    0.600458
Te112    O    0.170043    0.221633    0.602880
Mg55    Mg    0.190054    0.270566    0.665838
Mg56    Mg    0.198366    0.248705    0.311539
Sn277    C    0.120793    0.049191    0.579315
Sn278    C    0.104153    0.085508    0.478473
Sn279    C    0.081561    0.042421    0.475445
Sn280    C    0.098200    0.006104    0.576287
C281    C    0.123609    0.088595    0.530403
C282    C    0.078734    0.002991    0.524387
Te113    O    0.107155    0.125070    0.429860
Te114    O    0.061992    0.038974    0.423845
Te115    O    0.095199    0.966542    0.624900
Te116    O    0.140343    0.052659    0.630908
Mg57    Mg    0.127195    0.989046    0.685008
Mg58    Mg    0.075139    0.102587    0.369746
Sn283    C    0.397316    0.346414    0.148509
Sn284    C    0.422062    0.428168    0.196167
Sn285    C    0.398701    0.430764    0.241943
Sn286    C    0.373955    0.349010    0.194285
C287    C    0.421201    0.386010    0.149758
C288    C    0.374795    0.391154    0.240698
Te117    O    0.446020    0.467517    0.197006
Te118    O    0.399316    0.472715    0.288460
Te119    O    0.349997    0.309661    0.193445
Te120    O    0.396693    0.304503    0.101989
Mg59    Mg    0.359336    0.260791    0.120721
Mg60    Mg    0.436674    0.516427    0.269728
Sn289    C    0.813285    0.523456    0.048408
Sn290    C    0.819514    0.530073    0.935652
Sn291    C    0.797960    0.575032    0.933819
Sn292    C    0.791732    0.568415    0.046576
C293    C    0.827021    0.504591    0.992943
C294    C    0.784208    0.593912    0.989311
Te121    O    0.833364    0.510919    0.880515
Te122    O    0.790271    0.600747    0.876866
Te123    O    0.777881    0.587569    0.101713
Te124    O    0.820959    0.497728    0.105331
Mg61    Mg    0.795895    0.538892    0.167369
Mg62    Mg    0.815335    0.559583    0.814828
Sn295    C    0.705962    0.303088    0.615074
Sn296    C    0.701060    0.405696    0.604741
Sn297    C    0.724525    0.405804    0.559102
Sn298    C    0.729427    0.303197    0.569435
C299    C    0.691939    0.354327    0.632401
C300    C    0.738558    0.354538    0.541747
Te125    O    0.686909    0.456647    0.622378
Te126    O    0.733793    0.456841    0.531134
Te127    O    0.743577    0.252246    0.551798
Te128    O    0.696684    0.252071    0.643005
Mg63    Mg    0.722901    0.194057    0.603256
Mg64    Mg    0.707577    0.514856    0.570883

loop_
_geom_bond_atom_site_label_1
_geom_bond_atom_site_label_2
_geom_bond_distance
C1    H3    0.04814
C1    N13    0.04236
C1    C144    0.05450
C2    H4    0.04255
C2    N17    0.05793
C2    C245    0.05012
C3    C4    0.06377
C3    N5    0.05453
C3    C83    0.04065
C4    C19    0.03668
C4    C162    0.05433
N1    C61    0.04502
N1    C120    0.05054
C5    C13    0.06162
C5    H5    0.03692
C5    C81    0.04065
H1    C13    0.03705
C6    C7    0.06073
C6    C86    0.03585
C6    N23    0.04235
C7    H2    0.04031
C7    C85    0.02990
N2    C80    0.05793
N2    C293    0.05074
C8    C75    0.05861
C8    C84    0.03585
C8    C246    0.05014
C9    H7    0.04791
C9    N11    0.04502
C9    C288    0.05297
C10    H8    0.04451
C10    N19    0.05796
C10    C228    0.05081
C11    C12    0.06362
C11    N5    0.05467
C11    C91    0.04055
C12    C21    0.03663
C12    C132    0.05498
N3    C53    0.04236
N3    C221    0.05151
C13    C89    0.04055
C14    C15    0.06070
C14    C94    0.03582
C14    N24    0.04232
C15    H6    0.04026
C15    C93    0.02990
N4    C88    0.05796
N4    C174    0.05112
C16    C77    0.05855
C16    C92    0.03582
C16    C227    0.05009
C17    C173    0.05557
C17    C204    0.06148
C17    C210    0.05951
C17    C294    0.05577
C18    H9    0.02878
C18    C49    0.05067
C18    C51    0.05069
C19    C20    0.06204
C19    C106    0.04437
C20    H11    0.04301
C20    C98    0.03124
C21    C22    0.06179
C21    C105    0.04426
C22    H10    0.04286
C22    C100    0.03120
C23    C24    0.03790
C23    C44    0.05067
C23    C60    0.05861
C24    C26    0.05858
C24    H12    0.03497
C25    C26    0.03783
C25    C44    0.05069
C25    C68    0.05855
C26    H13    0.03499
C27    H16    0.04814
C27    N18    0.04236
C27    C198    0.05450
C28    H17    0.04255
C28    N12    0.05793
C28    C263    0.05012
C29    C30    0.06377
C29    N10    0.05453
C29    C57    0.04065
C30    C45    0.03668
C30    C125    0.05434
N6    C87    0.04502
N6    C252    0.05054
C31    C39    0.06162
C31    H18    0.03692
C31    C55    0.04065
H14    C39    0.03705
C32    C33    0.06073
C32    C60    0.03585
C32    N21    0.04235
C33    H15    0.04031
C33    C59    0.02990
N7    C54    0.05793
N7    C186    0.05073
C34    C58    0.03585
C34    C101    0.05861
C34    C264    0.05014
C35    H20    0.04791
C35    N16    0.04502
C35    C156    0.05296
C36    H21    0.04451
C36    N14    0.05796
C36    C179    0.05082
C37    C38    0.06362
C37    N10    0.05467
C37    C65    0.04055
C38    C47    0.03663
C38    C168    0.05497
N8    C79    0.04236
N8    C299    0.05150
C39    C63    0.04055
C40    C41    0.06070
C40    C68    0.03582
C40    N22    0.04232
C41    H19    0.04026
C41    C67    0.02990
N9    C62    0.05796
N9    C275    0.05113
C42    C66    0.03582
C42    C103    0.05855
C42    C180    0.05007
C43    C185    0.05579
C43    C239    0.05953
C43    C257    0.06150
C43    C276    0.05555
C44    H22    0.02878
C45    C46    0.06204
C45    C108    0.04437
C46    H24    0.04301
C46    C72    0.03124
C47    C48    0.06179
C47    C107    0.04426
C48    H23    0.04286
C48    C74    0.03120
C49    C50    0.03790
C49    C86    0.05861
C50    C52    0.05858
C50    H25    0.03497
C51    C52    0.03783
C51    C94    0.05855
C52    H26    0.03499
C53    H29    0.04814
C53    C131    0.05452
C54    H30    0.04255
C54    C270    0.05010
C55    C56    0.06377
C55    N15    0.05453
C56    C71    0.03668
C56    C287    0.05434
N11    C258    0.05054
C57    C65    0.06162
C57    H31    0.03692
H27    C65    0.03705
C58    C59    0.06073
C58    N21    0.04235
C59    H28    0.04031
N12    C215    0.05074
C60    C269    0.05015
C61    H33    0.04791
C61    C161    0.05298
C62    H34    0.04451
C62    C281    0.05082
C63    C64    0.06362
C63    N15    0.05467
C64    C73    0.03663
C64    C143    0.05499
N13    C240    0.05149
C66    C67    0.06070
C66    N22    0.04232
C67    H32    0.04026
N14    C192    0.05112
C68    C282    0.05007
C69    C191    0.05557
C69    C216    0.05577
C69    C251    0.06150
C69    C300    0.05951
C70    H35    0.02878
C70    C101    0.05067
C70    C103    0.05069
C71    C72    0.06204
C71    C108    0.04437
C72    H37    0.04301
C73    C74    0.06179
C73    C107    0.04426
C74    H36    0.04286
C75    C76    0.03790
C75    C96    0.05067
C76    C78    0.05858
C76    H38    0.03497
C77    C78    0.03783
C77    C96    0.05069
C78    H39    0.03499
C79    H42    0.04814
C79    C167    0.05452
C80    H43    0.04255
C80    C137    0.05012
C81    C82    0.06377
C81    N20    0.05453
C82    C97    0.03668
C82    C155    0.05435
N16    C203    0.05056
C83    C91    0.06162
C83    H44    0.03692
H40    C91    0.03705
C84    C85    0.06073
C84    N23    0.04235
C85    H41    0.04031
N17    C114    0.05073
C86    C138    0.05013
C87    H46    0.04791
C87    C126    0.05297
C88    H47    0.04451
C88    C150    0.05081
C89    C90    0.06362
C89    N20    0.05467
C90    C99    0.03663
C90    C197    0.05499
N18    C209    0.05150
C92    C93    0.06070
C92    N24    0.04232
C93    H45    0.04026
N19    C234    0.05112
C94    C149    0.05009
C95    C113    0.05579
C95    C119    0.06150
C95    C222    0.05951
C95    C233    0.05557
C96    H48    0.02878
C97    C98    0.06204
C97    C106    0.04437
C98    H50    0.04301
C99    C100    0.06179
C99    C105    0.04426
C100    H49    0.04286
C101    C102    0.03790
C102    C104    0.05858
C102    H51    0.03497
C103    C104    0.03783
C104    H52    0.03499
C105    H53    0.04743
C106    H54    0.04771
C107    H55    0.04743
C108    H56    0.04771
Sn109    Sn112    0.04990
Sn109    C113    0.06017
Sn109    Te4    0.06294
Sn110    Sn111    0.04990
Sn110    C113    0.06315
Sn110    Te1    0.05999
Sn111    C114    0.06021
Sn111    Te2    0.06297
Sn112    C114    0.06313
Sn112    Te3    0.05999
Te1    Mg2    0.08373
Te2    Mg2    0.07857
Te3    Mg1    0.08370
Te4    Mg1    0.07857
Sn115    Sn118    0.05165
Sn115    C119    0.05863
Sn115    Te8    0.05637
Sn116    Sn117    0.05165
Sn116    C119    0.05654
Sn116    Te5    0.05852
Sn117    C120    0.05867
Sn117    Te6    0.05640
Sn118    C120    0.05653
Sn118    Te7    0.05852
Te5    Mg4    0.07624
Te6    Mg4    0.07979
Te7    Mg3    0.07621
Te8    Mg3    0.07979
Sn121    Sn124    0.05146
Sn121    C125    0.04626
Sn121    Te12    0.06262
Sn122    Sn123    0.05146
Sn122    C125    0.06270
Sn122    Te9    0.04608
Sn123    C126    0.04628
Sn123    Te10    0.06264
Sn124    C126    0.06270
Sn124    Te11    0.04608
Te9    Mg6    0.08814
Te10    Mg6    0.06047
Te11    Mg5    0.08812
Te12    Mg5    0.06047
Sn127    Sn130    0.05286
Sn127    C131    0.04485
Sn127    Te16    0.06287
Sn128    Sn129    0.05286
Sn128    C131    0.06293
Sn128    Te13    0.04468
Sn129    C132    0.04488
Sn129    Te14    0.06290
Sn130    C132    0.06293
Sn130    Te15    0.04468
Te13    Mg8    0.08937
Te14    Mg8    0.05930
Te15    Mg7    0.08934
Te16    Mg7    0.05930
Sn133    Sn136    0.04831
Sn133    C137    0.06272
Sn133    Te20    0.05386
Sn134    Sn135    0.04831
Sn134    C137    0.05412
Sn134    Te17    0.06260
Sn135    C138    0.06276
Sn135    Te18    0.05387
Sn136    C138    0.05410
Sn136    Te19    0.06260
Te17    Mg10    0.06962
Te18    Mg10    0.08462
Te19    Mg9    0.06961
Te20    Mg9    0.08462
Sn139    Sn142    0.05286
Sn139    C143    0.04486
Sn139    Te24    0.06287
Sn140    Sn141    0.05286
Sn140    C143    0.06293
Sn140    Te21    0.04469
Sn141    C144    0.04488
Sn141    Te22    0.06289
Sn142    C144    0.06293
Sn142    Te23    0.04469
Te21    Mg12    0.08936
Te22    Mg12    0.05928
Te23    Mg11    0.08934
Te24    Mg11    0.05928
Sn145    Sn148    0.04875
Sn145    C149    0.05551
Sn145    Te28    0.06271
Sn146    Sn147    0.04875
Sn146    C149    0.06289
Sn146    Te25    0.05532
Sn147    C150    0.05555
Sn147    Te26    0.06274
Sn148    C150    0.06288
Sn148    Te27    0.05532
Te25    Mg14    0.08454
Te26    Mg14    0.07175
Te27    Mg13    0.08451
Te28    Mg13    0.07175
Sn151    Sn154    0.05146
Sn151    C155    0.06269
Sn151    Te32    0.04604
Sn152    Sn153    0.05146
Sn152    C155    0.04628
Sn152    Te29    0.06265
Sn153    C156    0.06273
Sn153    Te30    0.04605
Sn154    C156    0.04626
Sn154    Te31    0.06265
Te29    Mg16    0.06047
Te30    Mg16    0.08813
Te31    Mg15    0.06046
Te32    Mg15    0.08813
Sn157    Sn160    0.05146
Sn157    C161    0.04625
Sn157    Te36    0.06262
Sn158    Sn159    0.05146
Sn158    C161    0.06270
Sn158    Te33    0.04607
Sn159    C162    0.04628
Sn159    Te34    0.06265
Sn160    C162    0.06270
Sn160    Te35    0.04607
Te33    Mg18    0.08815
Te34    Mg18    0.06049
Te35    Mg17    0.08812
Te36    Mg17    0.06049
Sn163    Sn166    0.05286
Sn163    C167    0.06292
Sn163    Te40    0.04466
Sn164    Sn165    0.05286
Sn164    C167    0.04487
Sn164    Te37    0.06290
Sn165    C168    0.06296
Sn165    Te38    0.04469
Sn166    C168    0.04486
Sn166    Te39    0.06290
Te37    Mg20    0.05931
Te38    Mg20    0.08936
Te39    Mg19    0.05928
Te40    Mg19    0.08936
Sn169    Sn172    0.04992
Sn169    C173    0.06234
Sn169    Te44    0.06120
Sn170    Sn171    0.04992
Sn170    C173    0.06143
Sn170    Te41    0.06218
Sn171    C174    0.06238
Sn171    Te42    0.06123
Sn172    C174    0.06141
Sn172    Te43    0.06218
Te41    Mg22    0.08058
Te42    Mg22    0.08222
Te43    Mg21    0.08055
Te44    Mg21    0.08222
Sn175    Sn178    0.04874
Sn175    C179    0.06287
Sn175    Te48    0.05528
Sn176    Sn177    0.04874
Sn176    C179    0.05554
Sn176    Te45    0.06275
Sn177    C180    0.06291
Sn177    Te46    0.05529
Sn178    C180    0.05552
Sn178    Te47    0.06275
Te45    Mg24    0.07172
Te46    Mg24    0.08454
Te47    Mg23    0.07172
Te48    Mg23    0.08454
Sn181    Sn184    0.04990
Sn181    C185    0.06017
Sn181    Te52    0.06294
Sn182    Sn183    0.04990
Sn182    C185    0.06315
Sn182    Te49    0.05999
Sn183    C186    0.06021
Sn183    Te50    0.06297
Sn184    C186    0.06313
Sn184    Te51    0.05999
Te49    Mg26    0.08373
Te50    Mg26    0.07857
Te51    Mg25    0.08370
Te52    Mg25    0.07857
Sn187    Sn190    0.04992
Sn187    C191    0.06234
Sn187    Te56    0.06120
Sn188    Sn189    0.04992
Sn188    C191    0.06143
Sn188    Te53    0.06218
Sn189    C192    0.06238
Sn189    Te54    0.06123
Sn190    C192    0.06141
Sn190    Te55    0.06218
Te53    Mg28    0.08058
Te54    Mg28    0.08222
Te55    Mg27    0.08055
Te56    Mg27    0.08222
Sn193    Sn196    0.05286
Sn193    C197    0.04486
Sn193    Te60    0.06287
Sn194    Sn195    0.05286
Sn194    C197    0.06293
Sn194    Te57    0.04469
Sn195    C198    0.04488
Sn195    Te58    0.06289
Sn196    C198    0.06293
Sn196    Te59    0.04469
Te57    Mg30    0.08936
Te58    Mg30    0.05928
Te59    Mg29    0.08934
Te60    Mg29    0.05928
Sn199    Sn202    0.05165
Sn199    C203    0.05652
Sn199    Te64    0.05849
Sn200    Sn201    0.05165
Sn200    C203    0.05865
Sn200    Te61    0.05640
Sn201    C204    0.05656
Sn201    Te62    0.05852
Sn202    C204    0.05864
Sn202    Te63    0.05640
Te61    Mg32    0.07981
Te62    Mg32    0.07623
Te63    Mg31    0.07977
Te64    Mg31    0.07623
Sn205    Sn208    0.05132
Sn205    C209    0.05588
Sn205    Te68    0.05890
Sn206    Sn207    0.05132
Sn206    C209    0.05905
Sn206    Te65    0.05574
Sn207    C210    0.05591
Sn207    Te66    0.05893
Sn208    C210    0.05904
Sn208    Te67    0.05574
Te65    Mg34    0.08042
Te66    Mg34    0.07505
Te67    Mg33    0.08038
Te68    Mg33    0.07505
Sn211    Sn214    0.04989
Sn211    C215    0.06313
Sn211    Te72    0.05995
Sn212    Sn213    0.04989
Sn212    C215    0.06019
Sn212    Te69    0.06297
Sn213    C216    0.06317
Sn213    Te70    0.05997
Sn214    C216    0.06017
Sn214    Te71    0.06297
Te69    Mg36    0.07855
Te70    Mg36    0.08372
Te71    Mg35    0.07854
Te72    Mg35    0.08372
Sn217    Sn220    0.05132
Sn217    C221    0.05903
Sn217    Te76    0.05572
Sn218    Sn219    0.05132
Sn218    C221    0.05590
Sn218    Te73    0.05893
Sn219    C222    0.05907
Sn219    Te74    0.05575
Sn220    C222    0.05588
Sn220    Te75    0.05893
Te73    Mg38    0.07507
Te74    Mg38    0.08041
Te75    Mg37    0.07503
Te76    Mg37    0.08041
Sn223    Sn226    0.04875
Sn223    C227    0.05551
Sn223    Te80    0.06271
Sn224    Sn225    0.04875
Sn224    C227    0.06289
Sn224    Te77    0.05532
Sn225    C228    0.05555
Sn225    Te78    0.06274
Sn226    C228    0.06288
Sn226    Te79    0.05532
Te77    Mg40    0.08454
Te78    Mg40    0.07175
Te79    Mg39    0.08451
Te80    Mg39    0.07175
Sn229    Sn232    0.04992
Sn229    C233    0.06140
Sn229    Te84    0.06214
Sn230    Sn231    0.04992
Sn230    C233    0.06236
Sn230    Te81    0.06123
Sn231    C234    0.06144
Sn231    Te82    0.06218
Sn232    C234    0.06235
Sn232    Te83    0.06123
Te81    Mg42    0.08222
Te82    Mg42    0.08058
Te83    Mg41    0.08219
Te84    Mg41    0.08058
Sn235    Sn238    0.05132
Sn235    C239    0.05588
Sn235    Te88    0.05890
Sn236    Sn237    0.05132
Sn236    C239    0.05905
Sn236    Te85    0.05574
Sn237    C240    0.05591
Sn237    Te86    0.05893
Sn238    C240    0.05904
Sn238    Te87    0.05574
Te85    Mg44    0.08042
Te86    Mg44    0.07505
Te87    Mg43    0.08038
Te88    Mg43    0.07505
Sn241    Sn244    0.04831
Sn241    C245    0.05410
Sn241    Te92    0.06257
Sn242    Sn243    0.04831
Sn242    C245    0.06274
Sn242    Te89    0.05390
Sn243    C246    0.05413
Sn243    Te90    0.06260
Sn244    C246    0.06273
Sn244    Te91    0.05390
Te89    Mg46    0.08462
Te90    Mg46    0.06963
Te91    Mg45    0.08460
Te92    Mg45    0.06963
Sn247    Sn250    0.05165
Sn247    C251    0.05863
Sn247    Te96    0.05637
Sn248    Sn249    0.05165
Sn248    C251    0.05654
Sn248    Te93    0.05852
Sn249    C252    0.05867
Sn249    Te94    0.05640
Sn250    C252    0.05653
Sn250    Te95    0.05852
Te93    Mg48    0.07624
Te94    Mg48    0.07979
Te95    Mg47    0.07621
Te96    Mg47    0.07979
Sn253    Sn256    0.05165
Sn253    C257    0.05652
Sn253    Te100    0.05849
Sn254    Sn255    0.05165
Sn254    C257    0.05865
Sn254    Te97    0.05640
Sn255    C258    0.05656
Sn255    Te98    0.05852
Sn256    C258    0.05864
Sn256    Te99    0.05640
Te97    Mg50    0.07981
Te98    Mg50    0.07623
Te99    Mg49    0.07977
Te100    Mg49    0.07623
Sn259    Sn262    0.04831
Sn259    C263    0.05410
Sn259    Te104    0.06257
Sn260    Sn261    0.04831
Sn260    C263    0.06274
Sn260    Te101    0.05390
Sn261    C264    0.05413
Sn261    Te102    0.06260
Sn262    C264    0.06273
Sn262    Te103    0.05390
Te101    Mg52    0.08462
Te102    Mg52    0.06963
Te103    Mg51    0.08460
Te104    Mg51    0.06963
Sn265    Sn268    0.04831
Sn265    C269    0.06272
Sn265    Te108    0.05387
Sn266    Sn267    0.04831
Sn266    C269    0.05411
Sn266    Te105    0.06260
Sn267    C270    0.06276
Sn267    Te106    0.05391
Sn268    C270    0.05410
Sn268    Te107    0.06260
Te105    Mg54    0.06965
Te106    Mg54    0.08463
Te107    Mg53    0.06961
Te108    Mg53    0.08463
Sn271    Sn274    0.04992
Sn271    C275    0.06235
Sn271    Te112    0.06119
Sn272    Sn273    0.04992
Sn272    C275    0.06143
Sn272    Te109    0.06218
Sn273    C276    0.06238
Sn273    Te110    0.06121
Sn274    C276    0.06141
Sn274    Te111    0.06218
Te109    Mg56    0.08056
Te110    Mg56    0.08221
Te111    Mg55    0.08055
Te112    Mg55    0.08221
Sn277    Sn280    0.04874
Sn277    C281    0.06287
Sn277    Te116    0.05528
Sn278    Sn279    0.04874
Sn278    C281    0.05554
Sn278    Te113    0.06275
Sn279    C282    0.06291
Sn279    Te114    0.05529
Sn280    C282    0.05552
Sn280    Te115    0.06275
Te113    Mg58    0.07172
Te114    Mg58    0.08454
Te115    Mg57    0.07172
Te116    Mg57    0.08454
Sn283    Sn286    0.05146
Sn283    C287    0.04626
Sn283    Te120    0.06262
Sn284    Sn285    0.05146
Sn284    C287    0.06270
Sn284    Te117    0.04608
Sn285    C288    0.04628
Sn285    Te118    0.06264
Sn286    C288    0.06270
Sn286    Te119    0.04608
Te117    Mg60    0.08814
Te118    Mg60    0.06047
Te119    Mg59    0.08812
Te120    Mg59    0.06047
Sn289    Sn292    0.04989
Sn289    C293    0.06017
Sn289    Te124    0.06294
Sn290    Sn291    0.04989
Sn290    C293    0.06315
Sn290    Te121    0.05999
Sn291    C294    0.06021
Sn291    Te122    0.06296
Sn292    C294    0.06313
Sn292    Te123    0.05999
Te121    Mg62    0.08371
Te122    Mg62    0.07856
Te123    Mg61    0.08369
Te124    Mg61    0.07856
Sn295    Sn298    0.05132
Sn295    C299    0.05588
Sn295    Te128    0.05890
Sn296    Sn297    0.05132
Sn296    C299    0.05905
Sn296    Te125    0.05574
Sn297    C300    0.05591
Sn297    Te126    0.05893
Sn298    C300    0.05904
Sn298    Te127    0.05574
Te125    Mg64    0.08042
Te126    Mg64    0.07505
Te127    Mg63    0.08038
Te128    Mg63    0.07505
