data_new_xtal_PM
_symmetry_space_group_name_H-M    'P1'
_cell_length_a    21.416100
_cell_length_b    21.416100
_cell_length_c    19.393600
_cell_angle_alpha    90.000000
_cell_angle_beta    90.000000
_cell_angle_gamma    90.000000
_symmetry_Int_Tables_number 1

loop_
_symmetry_equiv_pos_as_xyz
'x,y,z'

loop_
_atom_site_label
_atom_site_type_symbol
_atom_site_fract_x
_atom_site_fract_y
_atom_site_fract_z
C1    C    0.529750    0.151940    0.178130
C2    C    0.651940    0.470250    0.928130
C3    C    0.029750    0.651940    0.678130
C4    C    0.470250    0.848060    0.178130
C5    C    0.348060    0.529750    0.928130
C6    C    0.151940    0.970250    0.428130
C7    C    0.529750    0.651940    0.071870
C8    C    0.848060    0.529750    0.821870
C9    C    0.470210    0.126250    0.183120
C10    C    0.626250    0.529790    0.933120
C11    C    0.970210    0.626250    0.683120
C12    C    0.529790    0.873750    0.183120
C13    C    0.373750    0.470210    0.933120
C14    C    0.126250    0.029790    0.433120
C15    C    0.470210    0.626250    0.066880
C16    C    0.873750    0.470210    0.816880
C17    C    0.461390    0.078200    0.206280
C18    C    0.578200    0.538610    0.956280
C19    C    0.961390    0.578200    0.706280
C20    C    0.538610    0.921800    0.206280
C21    C    0.421800    0.461390    0.956280
C22    C    0.078200    0.038610    0.456280
C23    C    0.461390    0.578200    0.043720
C24    C    0.921800    0.461390    0.793720
C25    C    0.511360    0.055580    0.225930
C26    C    0.555580    0.488640    0.975930
C27    C    0.011360    0.555580    0.725930
C28    C    0.488640    0.944420    0.225930
C29    C    0.444420    0.511360    0.975930
C30    C    0.055580    0.988640    0.475930
C31    C    0.511360    0.555580    0.024070
C32    C    0.944420    0.511360    0.774070
C33    C    0.571530    0.079940    0.219500
C34    C    0.579940    0.428470    0.969500
C35    C    0.071530    0.579940    0.719500
C36    C    0.428470    0.920060    0.219500
C37    C    0.420060    0.571530    0.969500
C38    C    0.079940    0.928470    0.469500
C39    C    0.571530    0.579940    0.030500
C40    C    0.920060    0.571530    0.780500
C41    C    0.580290    0.128010    0.196300
C42    C    0.628010    0.419710    0.946300
C43    C    0.080290    0.628010    0.696300
C44    C    0.419710    0.871990    0.196300
C45    C    0.371990    0.580290    0.946300
C46    C    0.128010    0.919710    0.446300
C47    C    0.580290    0.628010    0.053700
C48    C    0.871990    0.580290    0.803700
H1    H    0.430470    0.142940    0.168940
H2    H    0.642940    0.569530    0.918940
H3    H    0.930470    0.642940    0.668940
H4    H    0.569530    0.857060    0.168940
H5    H    0.357060    0.430470    0.918940
H6    H    0.142940    0.069530    0.418940
H7    H    0.430470    0.642940    0.081060
H8    H    0.857060    0.430470    0.831060
H9    H    0.415080    0.058550    0.209050
H10    H    0.558550    0.584920    0.959050
H11    H    0.915080    0.558550    0.709050
H12    H    0.584920    0.941450    0.209050
H13    H    0.441450    0.415080    0.959050
H14    H    0.058550    0.084920    0.459050
H15    H    0.415080    0.558550    0.040950
H16    H    0.941450    0.415080    0.790950
H17    H    0.612540    0.061250    0.231670
H18    H    0.561250    0.387460    0.981670
H19    H    0.112540    0.561250    0.731670
H20    H    0.387460    0.938750    0.231670
H21    H    0.438750    0.612540    0.981670
H22    H    0.061250    0.887460    0.481670
H23    H    0.612540    0.561250    0.018330
H24    H    0.938750    0.612540    0.768330
H25    H    0.626950    0.146040    0.192250
H26    H    0.646040    0.373050    0.942250
H27    H    0.126950    0.646040    0.692250
H28    H    0.373050    0.853960    0.192250
H29    H    0.353960    0.626950    0.942250
H30    H    0.146040    0.873050    0.442250
H31    H    0.626950    0.646040    0.057750
H32    H    0.853960    0.626950    0.807750
N1    N    0.494700    0.225900    0.136490
N2    N    0.005300    0.274100    0.636490
N3    N    0.774100    0.994700    0.386490
N4    N    0.725900    0.505300    0.886490
N5    N    0.505300    0.274100    0.113510
N6    N    0.994700    0.225900    0.613510
N7    N    0.225900    0.505300    0.863510
N8    N    0.274100    0.994700    0.363510
N9    N    0.994700    0.725900    0.636490
N10    N    0.505300    0.774100    0.136490
N11    N    0.274100    0.494700    0.886490
N12    N    0.225900    0.005300    0.386490
N13    N    0.005300    0.774100    0.613510
N14    N    0.494700    0.725900    0.113510
N15    N    0.725900    0.005300    0.363510
N16    N    0.774100    0.494700    0.863510
C49    C    0.540320    0.202760    0.153780
C50    C    0.959680    0.297240    0.653780
C51    C    0.797240    0.040320    0.403780
C52    C    0.702760    0.459680    0.903780
C53    C    0.459680    0.297240    0.096220
C54    C    0.040320    0.202760    0.596220
C55    C    0.202760    0.459680    0.846220
C56    C    0.297240    0.040320    0.346220
C57    C    0.040320    0.702760    0.653780
C58    C    0.459680    0.797240    0.153780
C59    C    0.297240    0.540320    0.903780
C60    C    0.202760    0.959680    0.403780
C61    C    0.959680    0.797240    0.596220
C62    C    0.540320    0.702760    0.096220
C63    C    0.702760    0.959680    0.346220
C64    C    0.797240    0.540320    0.846220
H33    H    0.587100    0.221040    0.150370
H34    H    0.912900    0.278960    0.650370
H35    H    0.778960    0.087100    0.400370
H36    H    0.721040    0.412900    0.900370
H37    H    0.412900    0.278960    0.099630
H38    H    0.087100    0.221040    0.599630
H39    H    0.221040    0.412900    0.849630
H40    H    0.278960    0.087100    0.349630
H41    H    0.087100    0.721040    0.650370
H42    H    0.412900    0.778960    0.150370
H43    H    0.278960    0.587100    0.900370
H44    H    0.221040    0.912900    0.400370
H45    H    0.912900    0.778960    0.599630
H46    H    0.587100    0.721040    0.099630
H47    H    0.721040    0.912900    0.349630
H48    H    0.778960    0.587100    0.849630
C65    C    0.500000    0.000000    0.250000
C66    C    0.000000    0.500000    0.750000
C67    C    0.000000    0.000000    0.500000
C68    C    0.500000    0.500000    0.000000
Sn69    C    0.424313    0.961438    0.291812
Sn70    C    0.429101    0.073815    0.274951
Sn71    C    0.369059    0.080081    0.305098
Sn72    C    0.364272    0.967704    0.321959
C73    C    0.456303    0.014524    0.268508
C74    C    0.337033    0.026967    0.328411
Te1    O    0.461444    0.126549    0.251516
Te2    O    0.341426    0.139049    0.311728
Te3    O    0.331929    0.914970    0.345394
Te4    O    0.451921    0.902493    0.285147
Mg1    Mg    0.389222    0.845097    0.324808
Mg2    Mg    0.404126    0.196445    0.272067
Sn75    C    0.864265    0.967705    0.428032
Sn76    C    0.869049    0.080082    0.444891
Sn77    C    0.929086    0.073816    0.475047
Sn78    C    0.924303    0.961439    0.458189
C79    C    0.837052    0.026970    0.421604
C80    C    0.956325    0.014517    0.481497
Te5    O    0.841458    0.139071    0.438228
Te6    O    0.961431    0.126525    0.498538
Te7    O    0.951893    0.902450    0.464852
Te8    O    0.831917    0.915017    0.404587
Mg3    Mg    0.889185    0.845101    0.425174
Mg4    Mg    0.904163    0.196441    0.477952
Sn81    C    0.570902    0.926194    0.274953
Sn82    C    0.575685    0.038571    0.291812
Sn83    C    0.635727    0.032307    0.321960
Sn84    C    0.630944    0.919929    0.305101
C85    C    0.543697    0.985461    0.268506
C86    C    0.662966    0.973008    0.328408
Te9    O    0.548099    0.097561    0.285139
Te10    O    0.668115    0.085026    0.345346
Te11    O    0.658529    0.860939    0.311774
Te12    O    0.538540    0.873503    0.251540
Mg5    Mg    0.595819    0.803590    0.272101
Mg6    Mg    0.610837    0.154940    0.324784
Sn87    C    0.961438    0.075687    0.541812
Sn88    C    0.073815    0.070899    0.524951
Sn89    C    0.080081    0.130941    0.555098
Sn90    C    0.967704    0.135728    0.571959
C91    C    0.014524    0.043697    0.518508
C92    C    0.026967    0.162967    0.578411
Te13    O    0.126549    0.038556    0.501516
Te14    O    0.139049    0.158574    0.561728
Te15    O    0.914970    0.168071    0.595394
Te16    O    0.902493    0.048079    0.535147
Mg7    Mg    0.845097    0.110778    0.574808
Mg8    Mg    0.196445    0.095874    0.522067
Sn93    C    0.070902    0.426194    0.774953
Sn94    C    0.075685    0.538571    0.791812
Sn95    C    0.135727    0.532307    0.821960
Sn96    C    0.130944    0.419929    0.805101
C97    C    0.043697    0.485461    0.768506
C98    C    0.162966    0.473008    0.828408
Te17    O    0.048099    0.597561    0.785139
Te18    O    0.168115    0.585026    0.845346
Te19    O    0.158529    0.360939    0.811774
Te20    O    0.038540    0.373503    0.751540
Mg9    Mg    0.095819    0.303590    0.772101
Mg10    Mg    0.110837    0.654940    0.824784
Sn99    C    0.032295    0.864265    0.571968
Sn100    C    0.919918    0.869049    0.555109
Sn101    C    0.926184    0.929086    0.524953
Sn102    C    0.038561    0.924303    0.541811
C103    C    0.973030    0.837052    0.578396
C104    C    0.985483    0.956325    0.518503
Te21    O    0.860929    0.841458    0.561772
Te22    O    0.873475    0.961431    0.501462
Te23    O    0.097550    0.951893    0.535148
Te24    O    0.084983    0.831917    0.595413
Mg11    Mg    0.154899    0.889185    0.574826
Mg12    Mg    0.803559    0.904163    0.522048
Sn105    C    0.419927    0.369050    0.055110
Sn106    C    0.532304    0.364263    0.071970
Sn107    C    0.538571    0.424301    0.041814
Sn108    C    0.426194    0.429088    0.024953
C109    C    0.473015    0.337053    0.078394
C110    C    0.485458    0.456326    0.018499
Te25    O    0.585039    0.331915    0.095395
Te26    O    0.597550    0.451889    0.035080
Te27    O    0.373459    0.461435    0.001528
Te28    O    0.360979    0.341455    0.061806
Mg13    Mg    0.303586    0.404144    0.022120
Mg14    Mg    0.654944    0.389200    0.074766
Sn111    C    0.038562    0.424313    0.708188
Sn112    C    0.926185    0.429101    0.725049
Sn113    C    0.919919    0.369059    0.694902
Sn114    C    0.032296    0.364272    0.678041
C115    C    0.985476    0.456303    0.731492
C116    C    0.973033    0.337033    0.671589
Te29    O    0.873451    0.461444    0.748484
Te30    O    0.860951    0.341426    0.688272
Te31    O    0.085030    0.331929    0.654606
Te32    O    0.097507    0.451921    0.714853
Mg15    Mg    0.154903    0.389222    0.675192
Mg16    Mg    0.803555    0.404126    0.727933

loop_
_geom_bond_atom_site_label_1
_geom_bond_atom_site_label_2
_geom_bond_distance
C1    C9    0.06504
C1    C41    0.05880
C1    C49    0.05734
C2    C10    0.06504
C2    C42    0.05880
C2    C52    0.05734
C3    C11    0.06504
C3    C43    0.05880
C3    C57    0.05734
C4    C12    0.06504
C4    C44    0.05880
C4    C58    0.05734
C5    C13    0.06504
C5    C45    0.05880
C5    C59    0.05734
C6    C14    0.06504
C6    C46    0.05880
C6    C60    0.05734
C7    C15    0.06504
C7    C47    0.05880
C7    C62    0.05734
C8    C16    0.06504
C8    C48    0.05880
C8    C64    0.05734
C9    C17    0.05406
C9    H1    0.04538
C10    C18    0.05406
C10    H2    0.04538
C11    C19    0.05406
C11    H3    0.04538
C12    C20    0.05406
C12    H4    0.04538
C13    C21    0.05406
C13    H5    0.04538
C14    C22    0.05406
C14    H6    0.04538
C15    C23    0.05406
C15    H7    0.04538
C16    C24    0.05406
C16    H8    0.04538
C17    C25    0.05826
C17    H9    0.05038
C17    Sn70    0.07601
C18    C26    0.05826
C18    C39    0.08521
C18    H10    0.05038
C19    C27    0.05826
C19    C40    0.08521
C19    H11    0.05038
C20    C28    0.05826
C20    H12    0.05038
C20    Sn81    0.07601
C21    C29    0.05826
C21    H13    0.05038
C21    Sn108    0.07602
C22    C30    0.05826
C22    H14    0.05038
C22    Sn88    0.07601
C23    C31    0.05826
C23    C37    0.08521
C23    H15    0.05038
C24    C32    0.05826
C24    H16    0.05038
C24    Sn112    0.07601
C25    C33    0.06523
C25    C65    0.06162
C26    C34    0.06523
C26    C68    0.06162
C27    C35    0.06523
C27    C66    0.06162
C28    C36    0.06523
C28    C65    0.06162
C29    C37    0.06523
C29    C68    0.06162
C30    C38    0.06523
C30    C67    0.06162
C31    C39    0.06523
C31    C68    0.06162
C32    C40    0.06523
C32    C66    0.06162
C33    C41    0.05409
C33    H17    0.04668
C33    Sn82    0.08341
C34    C42    0.05409
C34    H18    0.04668
C34    Sn107    0.08341
C35    C43    0.05409
C35    H19    0.04668
C35    Sn94    0.08341
C36    C44    0.05409
C36    H20    0.04668
C36    Sn69    0.08342
C37    C45    0.05409
C37    H21    0.04668
C38    C46    0.05409
C38    H22    0.04668
C38    Sn102    0.08342
C39    C47    0.05409
C39    H23    0.04668
C40    C48    0.05409
C40    H24    0.04668
C41    H25    0.05019
C42    H26    0.05019
C43    H27    0.05019
C44    H28    0.05019
C45    H29    0.05019
C46    H30    0.05019
C47    H31    0.05019
C48    H32    0.05019
N1    N5    0.05444
N1    C49    0.05400
N2    N6    0.05444
N2    C50    0.05400
N3    N15    0.05444
N3    C51    0.05400
N4    N16    0.05444
N4    C52    0.05400
N5    C53    0.05400
N6    C54    0.05400
N7    N11    0.05444
N7    C55    0.05400
N8    N12    0.05444
N8    C56    0.05400
N9    N13    0.05444
N9    C57    0.05400
N10    N14    0.05444
N10    C58    0.05400
N11    C59    0.05400
N12    C60    0.05400
N13    C61    0.05400
N14    C62    0.05400
N15    C63    0.05400
N16    C64    0.05400
C49    H33    0.05034
C50    H34    0.05034
C50    C116    0.04560
C51    H35    0.05034
C51    C79    0.04562
C52    H36    0.05034
C53    H37    0.05034
C53    C109    0.04561
C54    H38    0.05034
C54    C92    0.04560
C55    H39    0.05034
C55    C98    0.04559
C56    H40    0.05034
C56    C74    0.04560
C57    H41    0.05034
C58    H42    0.05034
C59    H43    0.05034
C60    H44    0.05034
C61    H45    0.05034
C61    C103    0.04562
C62    H46    0.05034
C63    H47    0.05034
C63    C86    0.04559
C64    H48    0.05034
C65    C73    0.04963
C65    C85    0.04963
C66    C97    0.04963
C66    C115    0.04963
C67    C80    0.04960
C67    C91    0.04963
C67    C104    0.04960
C68    C110    0.04961
Sn69    Sn72    0.06748
Sn69    C73    0.06622
Sn69    Te4    0.06543
Sn70    Sn71    0.06748
Sn70    C73    0.06555
Sn70    Te1    0.06615
Sn71    C74    0.06626
Sn71    Te2    0.06546
Sn72    C74    0.06554
Sn72    Te3    0.06615
Te1    Mg2    0.09270
Te2    Mg2    0.09380
Te3    Mg1    0.09267
Te4    Mg1    0.09380
Sn75    Sn78    0.06748
Sn75    C79    0.06553
Sn75    Te8    0.06612
Sn76    Sn77    0.06748
Sn76    C79    0.06623
Sn76    Te5    0.06546
Sn77    C80    0.06557
Sn77    Te6    0.06615
Sn78    C80    0.06623
Sn78    Te7    0.06546
Te5    Mg4    0.09381
Te6    Mg4    0.09269
Te7    Mg3    0.09379
Te8    Mg3    0.09269
Sn81    Sn84    0.06748
Sn81    C85    0.06553
Sn81    Te12    0.06612
Sn82    Sn83    0.06748
Sn82    C85    0.06624
Sn82    Te9    0.06546
Sn83    C86    0.06557
Sn83    Te10    0.06615
Sn84    C86    0.06623
Sn84    Te11    0.06546
Te9    Mg6    0.09381
Te10    Mg6    0.09269
Te11    Mg5    0.09378
Te12    Mg5    0.09269
Sn87    Sn90    0.06748
Sn87    C91    0.06622
Sn87    Te16    0.06543
Sn88    Sn89    0.06748
Sn88    C91    0.06555
Sn88    Te13    0.06615
Sn89    C92    0.06626
Sn89    Te14    0.06546
Sn90    C92    0.06554
Sn90    Te15    0.06615
Te13    Mg8    0.09270
Te14    Mg8    0.09380
Te15    Mg7    0.09267
Te16    Mg7    0.09380
Sn93    Sn96    0.06748
Sn93    C97    0.06553
Sn93    Te20    0.06612
Sn94    Sn95    0.06748
Sn94    C97    0.06624
Sn94    Te17    0.06546
Sn95    C98    0.06557
Sn95    Te18    0.06615
Sn96    C98    0.06623
Sn96    Te19    0.06546
Te17    Mg10    0.09381
Te18    Mg10    0.09269
Te19    Mg9    0.09378
Te20    Mg9    0.09269
Sn99    Sn102    0.06748
Sn99    C103    0.06553
Sn99    Te24    0.06612
Sn100    Sn101    0.06748
Sn100    C103    0.06623
Sn100    Te21    0.06546
Sn101    C104    0.06557
Sn101    Te22    0.06615
Sn102    C104    0.06623
Sn102    Te23    0.06546
Te21    Mg12    0.09381
Te22    Mg12    0.09269
Te23    Mg11    0.09379
Te24    Mg11    0.09269
Sn105    Sn108    0.06748
Sn105    C109    0.06621
Sn105    Te28    0.06543
Sn106    Sn107    0.06748
Sn106    C109    0.06555
Sn106    Te25    0.06615
Sn107    C110    0.06626
Sn107    Te26    0.06546
Sn108    C110    0.06554
Sn108    Te27    0.06615
Te25    Mg14    0.09270
Te26    Mg14    0.09380
Te27    Mg13    0.09267
Te28    Mg13    0.09380
Sn111    Sn114    0.06748
Sn111    C115    0.06622
Sn111    Te32    0.06543
Sn112    Sn113    0.06748
Sn112    C115    0.06555
Sn112    Te29    0.06615
Sn113    C116    0.06626
Sn113    Te30    0.06546
Sn114    C116    0.06554
Sn114    Te31    0.06615
Te29    Mg16    0.09270
Te30    Mg16    0.09380
Te31    Mg15    0.09267
Te32    Mg15    0.09380
