data_new_xtal_PM
_symmetry_space_group_name_H-M    'P1'
_cell_length_a    49.638900
_cell_length_b    15.702000
_cell_length_c    50.656000
_cell_angle_alpha    90.000000
_cell_angle_beta    120.000000
_cell_angle_gamma    90.000000
_symmetry_Int_Tables_number 1

loop_
_symmetry_equiv_pos_as_xyz
'x,y,z'

loop_
_atom_site_label
_atom_site_type_symbol
_atom_site_fract_x
_atom_site_fract_y
_atom_site_fract_z
C1    C    0.588330    0.451710    0.326050
C2    C    0.588330    0.548290    0.326050
N1    N    0.967670    0.146130    0.653930
N2    N    0.967670    0.853870    0.653930
C3    C    0.022800    0.163830    0.655210
C4    C    0.022800    0.836170    0.655210
C5    C    0.692910    0.451740    0.360640
C6    C    0.692910    0.548260    0.360640
C7    C    0.714470    0.596370    0.385930
C8    C    0.714470    0.403630    0.385930
C9    C    0.160640    0.720190    0.682280
C10    C    0.160640    0.279810    0.682280
N3    N    0.134930    0.735010    0.657450
N4    N    0.134930    0.264990    0.657450
C11    C    0.736180    0.451710    0.411540
C12    C    0.736180    0.548290    0.411540
N5    N    0.684060    0.149890    0.024400
N6    N    0.684060    0.850110    0.024400
C13    C    0.630020    0.163580    0.971210
C14    C    0.630020    0.836420    0.971210
C15    C    0.670990    0.451720    0.306120
C16    C    0.670990    0.548280    0.306120
C17    C    0.673250    0.596340    0.283350
C18    C    0.673250    0.403660    0.283350
C19    C    0.518560    0.715860    0.837450
C20    C    0.518560    0.284140    0.837450
N7    N    0.520150    0.731150    0.863660
N8    N    0.520150    0.268850    0.863660
C21    C    0.675720    0.451690    0.260450
C22    C    0.675720    0.548310    0.260450
N9    N    0.340970    0.145500    0.316350
N10    N    0.340970    0.854500    0.316350
C23    C    0.340590    0.157610    0.370390
C24    C    0.340590    0.842390    0.370390
C25    C    0.638200    0.451730    0.328910
C26    C    0.638200    0.548270    0.328910
C27    C    0.613450    0.596380    0.327590
C28    C    0.613450    0.403620    0.327590
C29    C    0.318780    0.719880    0.483790
C30    C    0.318780    0.280120    0.483790
N11    N    0.342960    0.741430    0.481640
N12    N    0.342960    0.258570    0.481640
C31    C    0.327540    0.548280    0.590480
C32    C    0.327540    0.451720    0.590480
N13    N    0.656670    0.852940    0.970690
N14    N    0.656670    0.147060    0.970690
C33    C    0.657440    0.834080    0.025100
C34    C    0.657440    0.165920    0.025100
C35    C    0.362430    0.548250    0.694630
C36    C    0.362430    0.451750    0.694630
C37    C    0.387400    0.403620    0.716850
C38    C    0.387400    0.596380    0.716850
C39    C    0.681290    0.280210    0.160710
C40    C    0.681290    0.719790    0.160710
N15    N    0.656670    0.266430    0.134810
N16    N    0.656670    0.733570    0.134810
C41    C    0.412670    0.548280    0.739260
C42    C    0.412670    0.451720    0.739260
N17    N    0.021750    0.851860    0.681410
N18    N    0.021750    0.148140    0.681410
C43    C    0.968480    0.837760    0.627630
C44    C    0.968480    0.162240    0.627630
C45    C    0.307460    0.548290    0.672320
C46    C    0.307460    0.451710    0.672320
C47    C    0.284860    0.403720    0.675220
C48    C    0.284860    0.596280    0.675220
C49    C    0.834030    0.284770    0.517310
C50    C    0.834030    0.715230    0.517310
N19    N    0.860140    0.266320    0.518550
N20    N    0.860140    0.733680    0.518550
C51    C    0.262130    0.548370    0.678350
C52    C    0.262130    0.451630    0.678350
N21    N    0.313860    0.856680    0.344030
N22    N    0.313860    0.143320    0.344030
C53    C    0.367830    0.840790    0.342680
C54    C    0.367830    0.159210    0.342680
C55    C    0.330940    0.548240    0.640170
C56    C    0.330940    0.451760    0.640170
C57    C    0.329330    0.403640    0.615490
C58    C    0.329330    0.596360    0.615490
C59    C    0.481700    0.281300    0.320130
C60    C    0.481700    0.718700    0.320130
N23    N    0.479930    0.258870    0.344270
N24    N    0.479930    0.741130    0.344270
C61    C    0.927860    0.048510    0.001950
C62    C    0.927860    0.951490    0.001950
C63    C    0.081330    0.048450    0.075220
C64    C    0.081330    0.951550    0.075220
C65    C    0.004330    0.048510    0.925760
C66    C    0.004330    0.951490    0.925760
C67    C    0.994300    0.138270    0.680980
C68    C    0.994300    0.861730    0.680980
N25    N    0.996000    0.170960    0.628350
N26    N    0.996000    0.829040    0.628350
C69    C    0.011690    0.133680    0.819130
C70    C    0.011690    0.866320    0.819130
N27    N    0.988350    0.118730    0.792280
N28    N    0.988350    0.881270    0.792280
C71    C    0.683790    0.139310    0.997280
C72    C    0.683790    0.860690    0.997280
N29    N    0.630560    0.172740    0.998370
N30    N    0.630560    0.827260    0.998370
C73    C    0.822800    0.132770    0.013560
C74    C    0.822800    0.867230    0.013560
N31    N    0.795500    0.117780    0.990840
N32    N    0.795500    0.882220    0.990840
C75    C    0.313920    0.136590    0.316880
C76    C    0.313920    0.863410    0.316880
N33    N    0.367340    0.165450    0.369510
N34    N    0.367340    0.834550    0.369510
C77    C    0.195130    0.136780    0.179040
C78    C    0.195130    0.863220    0.179040
N35    N    0.198550    0.121080    0.206020
N36    N    0.198550    0.878920    0.206020
C79    C    0.667390    0.408230    0.331840
C80    C    0.667390    0.591770    0.331840
C81    C    0.333570    0.591750    0.669000
C82    C    0.333570    0.408250    0.669000
C83    C    0.004430    0.903440    0.950030
C84    C    0.004430    0.096560    0.950030
C85    C    0.952390    0.903470    0.002150
C86    C    0.952390    0.096530    0.002150
C87    C    0.056680    0.903450    0.051960
C88    C    0.056680    0.096550    0.051960
C89    C    0.004390    0.908320    0.001780
C90    C    0.004390    0.091680    0.001780
C91    C    0.976630    0.951730    0.002200
C92    C    0.976630    0.048270    0.002200
C93    C    0.032170    0.951710    0.028950
C94    C    0.032170    0.048290    0.028950
C95    C    0.004370    0.951710    0.974020
C96    C    0.004370    0.048290    0.974020
H1    H    0.715180    0.668940    0.386670
H2    H    0.715180    0.331060    0.386670
H3    H    0.162280    0.736090    0.705060
H4    H    0.162280    0.263910    0.705060
H5    H    0.673180    0.668900    0.282630
H6    H    0.673180    0.331100    0.282630
H7    H    0.539450    0.731620    0.834640
H8    H    0.539450    0.268380    0.834640
H9    H    0.612710    0.668940    0.327700
H10    H    0.612710    0.331060    0.327700
H11    H    0.295080    0.730560    0.463300
H12    H    0.295080    0.269440    0.463300
H13    H    0.388150    0.331050    0.717580
H14    H    0.388150    0.668950    0.717580
H15    H    0.704650    0.263470    0.162940
H16    H    0.704650    0.736530    0.162940
H17    H    0.284100    0.331150    0.675170
H18    H    0.284100    0.668850    0.675170
H19    H    0.831130    0.272700    0.538070
H20    H    0.831130    0.727300    0.538070
H21    H    0.329410    0.331070    0.614840
H22    H    0.329410    0.668930    0.614840
H23    H    0.460490    0.271270    0.297030
H24    H    0.460490    0.728730    0.297030
H25    H    0.034810    0.149920    0.820720
H26    H    0.034810    0.850080    0.820720
H27    H    0.825320    0.148510    0.036710
H28    H    0.825320    0.851490    0.036710
H29    H    0.216340    0.154000    0.176980
H30    H    0.216340    0.846000    0.176980
H31    H    0.667360    0.335630    0.331850
H32    H    0.667360    0.664370    0.331850
H33    H    0.333570    0.664360    0.669040
H34    H    0.333570    0.335640    0.669040
H35    H    0.004550    0.830870    0.949430
H36    H    0.004550    0.169130    0.949430
H37    H    0.951700    0.830910    0.002260
H38    H    0.951700    0.169090    0.002260
H39    H    0.057460    0.830880    0.052610
H40    H    0.057460    0.169120    0.052610
H41    H    0.004370    0.835720    0.001800
H42    H    0.004370    0.164280    0.001800
Sn97    C    0.977985    0.897035    0.871893
Sn98    C    0.034323    0.887574    0.902421
Sn99    C    0.035946    0.871485    0.875688
Sn100    C    0.979608    0.880947    0.845160
C101    C    0.005348    0.900253    0.900333
C102    C    0.008569    0.868275    0.847225
Te1    O    0.061518    0.890910    0.930938
Te2    O    0.064755    0.858815    0.877502
Te3    O    0.952413    0.877610    0.816643
Te4    O    0.949191    0.909750    0.870079
Mg1    Mg    0.918901    0.899047    0.826079
Mg2    Mg    0.095045    0.869518    0.921502
Sn103    C    0.846890    0.881649    0.980296
Sn104    C    0.879488    0.871283    0.035350
Sn105    C    0.906228    0.887266    0.032796
Sn106    C    0.873630    0.897632    0.977742
C107    C    0.850002    0.868604    0.009077
C108    C    0.903121    0.900336    0.004000
Te5    O    0.882346    0.858164    0.063991
Te6    O    0.935780    0.890165    0.058880
Te7    O    0.870773    0.910751    0.949101
Te8    O    0.817348    0.878800    0.954226
Mg3    Mg    0.825598    0.900650    0.920490
Mg4    Mg    0.927531    0.868315    0.092615
Sn109    C    0.350533    0.668538    0.538406
Sn110    C    0.294242    0.654458    0.512196
Sn111    C    0.296448    0.613578    0.538188
Sn112    C    0.352740    0.627659    0.564398
C113    C    0.321306    0.681639    0.512488
C114    C    0.325692    0.600448    0.564124
Te9    O    0.265158    0.667852    0.486194
Te10    O    0.269579    0.586102    0.538137
Te11    O    0.381823    0.614265    0.590400
Te12    O    0.377390    0.695960    0.538449
Mg5    Mg    0.411481    0.663086    0.579261
Mg6    Mg    0.235489    0.618976    0.497325
Sn115    C    0.629445    0.227547    0.080492
Sn116    C    0.685842    0.216449    0.108861
Sn117    C    0.685673    0.191412    0.081865
Sn118    C    0.629276    0.202510    0.053496
C119    C    0.657722    0.234359    0.107982
C120    C    0.657382    0.184604    0.054353
Te13    O    0.713961    0.223438    0.136437
Te14    O    0.713615    0.173456    0.082473
Te15    O    0.601157    0.195521    0.025921
Te16    O    0.601517    0.245544    0.079883
Mg7    Mg    0.569403    0.226827    0.036842
Mg8    Mg    0.745730    0.192173    0.125514
Sn121    C    0.906230    0.112737    0.032790
Sn122    C    0.873633    0.102372    0.977737
Sn123    C    0.846892    0.118341    0.980291
Sn124    C    0.879489    0.128706    0.035344
C125    C    0.903117    0.099666    0.004010
C126    C    0.849999    0.131409    0.009087
Te17    O    0.870774    0.089238    0.949095
Te18    O    0.817334    0.121099    0.954211
Te19    O    0.882348    0.141839    0.063986
Te20    O    0.935774    0.109929    0.058859
Mg9    Mg    0.927523    0.131744    0.092596
Mg10    Mg    0.825585    0.099284    0.920474
Sn127    C    0.711527    0.885577    0.968042
Sn128    C    0.741408    0.865938    0.022967
Sn129    C    0.769414    0.870032    0.021920
Sn130    C    0.739533    0.889671    0.966994
C131    C    0.712658    0.873725    0.996015
C132    C    0.768290    0.881877    0.993932
Te21    O    0.742285    0.854121    0.050793
Te22    O    0.798251    0.862249    0.048688
Te23    O    0.738656    0.901488    0.939169
Te24    O    0.682701    0.893306    0.941284
Mg11    Mg    0.693754    0.908511    0.909125
Mg12    Mg    0.787198    0.847044    0.080847
Sn133    C    0.052393    0.800857    0.628400
Sn134    C    0.079671    0.810412    0.683697
Sn135    C    0.107669    0.784946    0.684855
Sn136    C    0.080390    0.775391    0.629557
C137    C    0.052225    0.818173    0.655472
C138    C    0.107843    0.767601    0.657769
Te25    O    0.079257    0.827861    0.710608
Te26    O    0.135203    0.776908    0.712914
Te27    O    0.080804    0.757942    0.602647
Te28    O    0.024865    0.808844    0.600355
Mg13    Mg    0.037383    0.777980    0.570189
Mg14    Mg    0.122685    0.807772    0.743080
Sn139    C    0.781402    0.346922    0.489517
Sn140    C    0.811031    0.334073    0.463354
Sn141    C    0.786557    0.374312    0.437304
Sn142    C    0.756928    0.387162    0.463468
C143    C    0.808282    0.320675    0.489283
C144    C    0.759659    0.400596    0.437534
Te29    O    0.837976    0.307611    0.463350
Te30    O    0.789066    0.388087    0.411300
Te31    O    0.729984    0.413623    0.463471
Te32    O    0.778904    0.333196    0.515518
Mg15    Mg    0.737672    0.380685    0.504315
Mg16    Mg    0.830298    0.340598    0.422503
Sn145    C    0.537215    0.670415    0.350097
Sn146    C    0.508959    0.651766    0.295087
Sn147    C    0.535269    0.610965    0.296748
Sn148    C    0.563525    0.629614    0.351758
C149    C    0.510116    0.681193    0.321779
C150    C    0.562386    0.600158    0.325082
Te33    O    0.481780    0.662850    0.266913
Te34    O    0.534361    0.581258    0.270245
Te35    O    0.590703    0.618530    0.379931
Te36    O    0.538114    0.700066    0.376589
Mg17    Mg    0.580403    0.669858    0.409409
Mg18    Mg    0.492072    0.611466    0.237425
Sn151    C    0.437754    0.376652    0.789578
Sn152    C    0.464986    0.385190    0.760946
Sn153    C    0.491256    0.344948    0.785305
Sn154    C    0.464024    0.336410    0.813937
C155    C    0.438418    0.400775    0.763258
C156    C    0.490600    0.320814    0.811647
Te37    O    0.465414    0.409529    0.734557
Te38    O    0.517920    0.329151    0.783254
Te39    O    0.463597    0.312071    0.840326
Te40    O    0.411108    0.392489    0.791633
Mg19    Mg    0.421929    0.347458    0.832190
Mg20    Mg    0.507099    0.374182    0.742698
Sn157    C    0.019349    0.131007    0.765647
Sn158    C    0.963311    0.111164    0.736292
Sn159    C    0.964456    0.114776    0.708882
Sn160    C    0.020494    0.134619    0.738237
C161    C    0.990770    0.119323    0.764486
C162    C    0.993050    0.126482    0.710037
Te41    O    0.934883    0.099507    0.735380
Te42    O    0.937179    0.106788    0.680603
Te43    O    0.048923    0.146276    0.739149
Te44    O    0.046611    0.139041    0.793914
Mg21    Mg    0.079498    0.153901    0.783158
Mg22    Mg    0.904292    0.091928    0.691359
Sn163    C    0.213976    0.340272    0.708291
Sn164    C    0.185936    0.334151    0.652921
Sn165    C    0.211048    0.375886    0.652454
Sn166    C    0.239088    0.382007    0.707824
C167    C    0.187576    0.316651    0.680842
C168    C    0.237466    0.399543    0.679918
Te45    O    0.159462    0.310288    0.625630
Te46    O    0.209646    0.393752    0.624706
Te47    O    0.265562    0.405870    0.735115
Te48    O    0.215368    0.322457    0.736026
Mg23    Mg    0.256337    0.367628    0.766923
Mg24    Mg    0.168677    0.348580    0.593808
Sn169    C    0.368987    0.811025    0.426452
Sn170    C    0.312484    0.815674    0.400051
Sn171    C    0.313054    0.790358    0.427215
Sn172    C    0.369558    0.785709    0.453616
C173    C    0.340460    0.825814    0.399861
C174    C    0.341597    0.775541    0.453826
Te49    O    0.284112    0.830610    0.373369
Te50    O    0.285261    0.779958    0.427658
Te51    O    0.397930    0.770772    0.480298
Te52    O    0.396767    0.821373    0.426003
Mg25    Mg    0.429343    0.793438    0.468094
Mg26    Mg    0.252685    0.807893    0.385566
Sn175    C    0.705971    0.618406    0.238044
Sn176    C    0.649467    0.623879    0.209461
Sn177    C    0.650551    0.665281    0.185112
Sn178    C    0.707055    0.659809    0.213694
C179    C    0.677190    0.600716    0.235757
C180    C    0.679347    0.682979    0.187391
Te53    O    0.620838    0.605926    0.207404
Te54    O    0.623014    0.688620    0.158736
Te55    O    0.735684    0.677761    0.215751
Te56    O    0.733495    0.595031    0.264401
Mg27    Mg    0.766584    0.633285    0.256264
Mg28    Mg    0.589925    0.650367    0.166874
Sn181    C    0.437754    0.623348    0.789578
Sn182    C    0.464986    0.614810    0.760946
Sn183    C    0.491256    0.655052    0.785305
Sn184    C    0.464024    0.663590    0.813937
C185    C    0.438418    0.599225    0.763258
C186    C    0.490600    0.679186    0.811647
Te57    O    0.465414    0.590471    0.734557
Te58    O    0.517920    0.670849    0.783254
Te59    O    0.463597    0.687929    0.840326
Te60    O    0.411108    0.607511    0.791633
Mg29    Mg    0.421929    0.652542    0.832190
Mg30    Mg    0.507099    0.625818    0.742698
Sn187    C    0.257166    0.885767    0.288791
Sn188    C    0.284054    0.863555    0.260314
Sn189    C    0.255192    0.866335    0.232611
Sn190    C    0.228303    0.888547    0.261089
C191    C    0.284836    0.873277    0.288213
C192    C    0.227499    0.878819    0.233183
Te61    O    0.311825    0.851116    0.259984
Te62    O    0.254135    0.856619    0.204624
Te63    O    0.200532    0.900986    0.261418
Te64    O    0.258222    0.895429    0.316768
Mg31    Mg    0.214156    0.910778    0.305223
Mg32    Mg    0.298201    0.841270    0.216169
Sn193    C    0.547133    0.228171    0.917186
Sn194    C    0.574109    0.216183    0.888390
Sn195    C    0.601358    0.188875    0.915090
Sn196    C    0.574381    0.200863    0.943886
C197    C    0.547186    0.235657    0.889629
C198    C    0.601313    0.181391    0.942670
Te65    O    0.573920    0.223864    0.860751
Te66    O    0.628381    0.169343    0.914123
Te67    O    0.574570    0.193182    0.971525
Te68    O    0.520126    0.247743    0.918155
Mg33    Mg    0.532069    0.227261    0.961142
Mg34    Mg    0.616438    0.189825    0.871136
Sn199    C    0.134126    0.108775    0.096993
Sn200    C    0.109122    0.106527    0.127779
Sn201    C    0.138100    0.124383    0.154192
Sn202    C    0.163104    0.126632    0.123406
C203    C    0.107341    0.098831    0.099362
C204    C    0.164907    0.134322    0.151829
Te69    O    0.082230    0.096486    0.129901
Te70    O    0.140153    0.132118    0.182687
Te71    O    0.189996    0.136672    0.121284
Te72    O    0.132075    0.100994    0.068512
Mg35    Mg    0.175190    0.120096    0.077462
Mg36    Mg    0.097038    0.113015    0.173738
Sn205    C    0.079670    0.189590    0.683693
Sn206    C    0.052389    0.199143    0.628395
Sn207    C    0.080386    0.224609    0.629552
Sn208    C    0.107667    0.215056    0.684850
C209    C    0.052228    0.181826    0.655479
C210    C    0.107849    0.232397    0.657781
Te73    O    0.024854    0.191191    0.600330
Te74    O    0.080809    0.242141    0.602652
Te75    O    0.135202    0.223007    0.712915
Te76    O    0.079242    0.172112    0.710581
Mg37    Mg    0.122665    0.192153    0.743060
Mg38    Mg    0.037386    0.222101    0.570173
Sn211    C    0.134126    0.891225    0.096993
Sn212    C    0.109122    0.893473    0.127779
Sn213    C    0.138100    0.875617    0.154192
Sn214    C    0.163104    0.873368    0.123406
C215    C    0.107341    0.901169    0.099362
C216    C    0.164907    0.865678    0.151829
Te77    O    0.082230    0.903514    0.129901
Te78    O    0.140153    0.867882    0.182687
Te79    O    0.189996    0.863328    0.121284
Te80    O    0.132075    0.899006    0.068512
Mg39    Mg    0.175190    0.879904    0.077462
Mg40    Mg    0.097038    0.886985    0.173738
Sn217    C    0.257166    0.114233    0.288791
Sn218    C    0.284054    0.136445    0.260314
Sn219    C    0.255192    0.133665    0.232611
Sn220    C    0.228303    0.111453    0.261089
C221    C    0.284836    0.126723    0.288213
C222    C    0.227499    0.121181    0.233183
Te81    O    0.311825    0.148884    0.259984
Te82    O    0.254135    0.143381    0.204624
Te83    O    0.200532    0.099014    0.261418
Te84    O    0.258222    0.104571    0.316768
Mg41    Mg    0.214156    0.089222    0.305223
Mg42    Mg    0.298201    0.158730    0.216169
Sn223    C    0.629275    0.797500    0.053493
Sn224    C    0.685672    0.808600    0.081860
Sn225    C    0.685843    0.783550    0.108856
Sn226    C    0.629446    0.772450    0.080488
C227    C    0.657384    0.815382    0.054363
C228    C    0.657719    0.765638    0.107991
Te85    O    0.713622    0.826609    0.082487
Te86    O    0.713955    0.776489    0.136431
Te87    O    0.601496    0.754441    0.079862
Te88    O    0.601178    0.804511    0.025924
Mg43    Mg    0.569403    0.773188    0.036825
Mg44    Mg    0.745730    0.807812    0.125530
Sn229    C    0.786549    0.625686    0.437301
Sn230    C    0.756921    0.612836    0.463465
Sn231    C    0.781397    0.653064    0.489516
Sn232    C    0.811025    0.665914    0.463352
C233    C    0.759674    0.599415    0.437539
C234    C    0.808295    0.679346    0.489287
Te89    O    0.729978    0.586361    0.463470
Te90    O    0.778909    0.666711    0.515539
Te91    O    0.837968    0.692388    0.463347
Te92    O    0.789042    0.611998    0.411295
Mg45    Mg    0.830279    0.659456    0.422503
Mg46    Mg    0.737672    0.619252    0.504331
Sn235    C    0.424832    0.786449    0.315302
Sn236    C    0.452173    0.786959    0.370705
Sn237    C    0.424406    0.812092    0.370086
Sn238    C    0.397065    0.811581    0.314683
C239    C    0.452187    0.774297    0.343303
C240    C    0.397027    0.824242    0.342070
Te93    O    0.479621    0.774659    0.398555
Te94    O    0.424116    0.824833    0.397308
Te95    O    0.369617    0.823881    0.286833
Te96    O    0.425118    0.773663    0.288093
Mg47    Mg    0.381890    0.798472    0.256091
Mg48    Mg    0.467345    0.800024    0.429310
Sn241    C    0.350533    0.331462    0.538406
Sn242    C    0.294242    0.345542    0.512196
Sn243    C    0.296448    0.386422    0.538188
Sn244    C    0.352740    0.372341    0.564398
C245    C    0.321306    0.318361    0.512488
C246    C    0.325692    0.399552    0.564124
Te97    O    0.265158    0.332148    0.486194
Te98    O    0.269579    0.413898    0.538137
Te99    O    0.381823    0.385735    0.590400
Te100    O    0.377390    0.304040    0.538449
Mg49    Mg    0.411481    0.336914    0.579261
Mg50    Mg    0.235489    0.381024    0.497325
Sn247    C    0.563529    0.370386    0.351758
Sn248    C    0.535275    0.389038    0.296749
Sn249    C    0.508963    0.348248    0.295087
Sn250    C    0.537217    0.329597    0.350097
C251    C    0.562375    0.399834    0.325079
C252    C    0.510109    0.318787    0.321781
Te101    O    0.534361    0.418676    0.270233
Te102    O    0.481772    0.337203    0.266924
Te103    O    0.538131    0.299958    0.376612
Te104    O    0.590703    0.381473    0.379910
Mg51    Mg    0.580419    0.330167    0.409410
Mg52    Mg    0.492056    0.388510    0.237424
Sn253    C    0.313060    0.209641    0.427223
Sn254    C    0.369563    0.214290    0.453623
Sn255    C    0.368992    0.188986    0.426458
Sn256    C    0.312489    0.184337    0.400058
C257    C    0.341587    0.224456    0.453811
C258    C    0.340450    0.174171    0.399847
Te105    O    0.397935    0.229240    0.480304
Te106    O    0.396784    0.178723    0.426002
Te107    O    0.284117    0.169387    0.373377
Te108    O    0.285280    0.219949    0.427675
Mg53    Mg    0.252704    0.192046    0.385581
Mg54    Mg    0.429360    0.206626    0.468097
Sn259    C    0.019349    0.868993    0.765647
Sn260    C    0.963311    0.888836    0.736292
Sn261    C    0.964456    0.885224    0.708882
Sn262    C    0.020494    0.865381    0.738237
C263    C    0.990770    0.880677    0.764486
C264    C    0.993050    0.873518    0.710037
Te109    O    0.934883    0.900493    0.735380
Te110    O    0.937179    0.893212    0.680603
Te111    O    0.048923    0.853724    0.739149
Te112    O    0.046611    0.860959    0.793914
Mg55    Mg    0.079498    0.846099    0.783158
Mg56    Mg    0.904292    0.908072    0.691359
Sn265    C    0.914093    0.777044    0.545411
Sn266    C    0.884884    0.782406    0.572159
Sn267    C    0.912040    0.809246    0.599039
Sn268    C    0.941248    0.803885    0.572292
C269    C    0.886105    0.766476    0.545532
C270    C    0.940050    0.819813    0.598927
Te113    O    0.856813    0.771665    0.572040
Te114    O    0.911095    0.825252    0.625764
Te115    O    0.969320    0.814626    0.572410
Te116    O    0.915040    0.760996    0.518702
Mg57    Mg    0.958715    0.784764    0.530407
Mg58    Mg    0.867420    0.801484    0.614060
Sn271    C    0.547133    0.771829    0.917186
Sn272    C    0.574109    0.783817    0.888390
Sn273    C    0.601358    0.811125    0.915090
Sn274    C    0.574381    0.799137    0.943886
C275    C    0.547186    0.764343    0.889629
C276    C    0.601313    0.818609    0.942670
Te117    O    0.573920    0.776136    0.860751
Te118    O    0.628381    0.830657    0.914123
Te119    O    0.574570    0.806818    0.971525
Te120    O    0.520126    0.752257    0.918155
Mg59    Mg    0.532069    0.772739    0.961142
Mg60    Mg    0.616438    0.810175    0.871136
Sn277    C    0.424832    0.213551    0.315302
Sn278    C    0.452173    0.213041    0.370705
Sn279    C    0.424406    0.187908    0.370086
Sn280    C    0.397065    0.188419    0.314683
C281    C    0.452187    0.225703    0.343303
C282    C    0.397027    0.175758    0.342070
Te121    O    0.479621    0.225341    0.398555
Te122    O    0.424116    0.175167    0.397308
Te123    O    0.369617    0.176119    0.286833
Te124    O    0.425118    0.226337    0.288093
Mg61    Mg    0.381890    0.201528    0.256091
Mg62    Mg    0.467345    0.199976    0.429310
Sn283    C    0.035941    0.128523    0.875681
Sn284    C    0.979604    0.119062    0.845153
Sn285    C    0.977980    0.102961    0.871886
Sn286    C    0.034318    0.112421    0.902413
C287    C    0.008579    0.131715    0.847240
C288    C    0.005357    0.099748    0.900348
Te125    O    0.952409    0.122385    0.816635
Te126    O    0.949176    0.090150    0.870066
Te127    O    0.061513    0.109099    0.930931
Te128    O    0.064734    0.141279    0.877496
Mg63    Mg    0.095025    0.130542    0.921495
Mg64    Mg    0.918885    0.100887    0.826067
Sn289    C    0.649471    0.376120    0.209463
Sn290    C    0.705975    0.381596    0.238047
Sn291    C    0.707060    0.340193    0.213698
Sn292    C    0.650557    0.334718    0.185114
C293    C    0.677182    0.399284    0.235754
C294    C    0.679335    0.317019    0.187385
Te129    O    0.733521    0.404991    0.264407
Te130    O    0.735680    0.322295    0.215730
Te131    O    0.623010    0.311323    0.158754
Te132    O    0.620865    0.394057    0.207426
Mg65    Mg    0.589942    0.349602    0.166907
Mg66    Mg    0.766602    0.366750    0.256248
Sn295    C    0.769416    0.129960    0.021915
Sn296    C    0.739535    0.110320    0.966990
Sn297    C    0.711529    0.114426    0.968037
Sn298    C    0.741411    0.134067    0.022962
C299    C    0.768286    0.118134    0.993941
C300    C    0.712653    0.126274    0.996025
Te133    O    0.738659    0.098517    0.939164
Te134    O    0.682691    0.106786    0.941262
Te135    O    0.742287    0.145869    0.050788
Te136    O    0.798242    0.137647    0.048675
Mg67    Mg    0.787189    0.152885    0.080832
Mg68    Mg    0.693744    0.091547    0.909105
Sn301    C    0.884888    0.217594    0.572158
Sn302    C    0.914094    0.222957    0.545408
Sn303    C    0.941250    0.196117    0.572288
Sn304    C    0.912043    0.190753    0.599038
C305    C    0.886101    0.233524    0.545535
C306    C    0.940044    0.180185    0.598933
Te137    O    0.915060    0.239030    0.518696
Te138    O    0.969333    0.185440    0.572429
Te139    O    0.911077    0.174681    0.625750
Te140    O    0.856820    0.228315    0.572021
Mg69    Mg    0.867407    0.198472    0.614028
Mg70    Mg    0.958747    0.215284    0.530421
Sn307    C    0.185939    0.665847    0.652926
Sn308    C    0.213978    0.659729    0.708295
Sn309    C    0.239090    0.617994    0.707829
Sn310    C    0.211051    0.624112    0.652460
C311    C    0.187573    0.683350    0.680834
C312    C    0.237460    0.600459    0.679906
Te141    O    0.215381    0.677509    0.736052
Te142    O    0.265556    0.594047    0.735110
Te143    O    0.209648    0.606332    0.624703
Te144    O    0.159476    0.689740    0.625657
Mg71    Mg    0.168680    0.651501    0.593827
Mg72    Mg    0.256352    0.632286    0.766940

loop_
_geom_bond_atom_site_label_1
_geom_bond_atom_site_label_2
_geom_bond_distance
C1    C2    0.09658
C1    C28    0.05428
C1    C251    0.05801
C2    C27    0.05428
C2    C150    0.05800
N1    C44    0.03085
N1    C67    0.03876
N2    C43    0.03085
N2    C68    0.03876
C3    N18    0.03056
C3    N25    0.03861
C3    C209    0.03450
C4    N17    0.03056
C4    N26    0.03861
C4    C137    0.03449
C5    C6    0.09652
C5    C8    0.05847
C5    C79    0.05808
C6    C7    0.05847
C6    C80    0.05808
C7    C12    0.05864
C7    H1    0.07258
C8    C11    0.05864
C8    H2    0.07258
C9    N3    0.03869
C9    H3    0.02783
C9    C311    0.04566
C10    N4    0.03869
C10    H4    0.02783
C10    C167    0.04566
N3    C138    0.04238
N4    C210    0.04238
C11    C12    0.09658
C11    C144    0.06196
C12    C233    0.06198
N5    C34    0.03108
N5    C71    0.02911
N6    C33    0.03108
N6    C72    0.02911
C13    N14    0.03136
C13    N29    0.02867
C13    C198    0.04423
C14    N13    0.03136
C14    N30    0.02867
C14    C276    0.04423
C15    C16    0.09656
C15    C18    0.05323
C15    C79    0.05065
C16    C17    0.05323
C16    C80    0.05065
C17    C22    0.05327
C17    H5    0.07256
C18    C21    0.05327
C18    H6    0.07256
C19    N7    0.03039
C19    H7    0.02632
C19    C186    0.05284
C20    N8    0.03039
C20    H8    0.02632
C20    C156    0.05284
N7    C275    0.05007
N8    C197    0.05007
C21    C22    0.09662
C21    C293    0.05795
C22    C179    0.05795
N9    C54    0.04003
N9    C75    0.02848
N10    C53    0.04003
N10    C76    0.02848
C23    N22    0.04017
C23    N33    0.02789
C23    C258    0.03379
C24    N21    0.04017
C24    N34    0.02789
C24    C173    0.03381
C25    C26    0.09654
C25    C28    0.05412
C25    C79    0.05247
C26    C27    0.05412
C26    C80    0.05247
C27    H9    0.07256
C28    H10    0.07256
C29    N11    0.03246
C29    H11    0.03310
C29    C113    0.04788
C30    N12    0.03246
C30    H12    0.03310
C30    C245    0.04788
N11    C174    0.04403
N12    C257    0.04405
C31    C32    0.09656
C31    C58    0.05423
C31    C114    0.05848
C32    C57    0.05423
C32    C246    0.05848
N13    C72    0.03876
N14    C71    0.03876
C33    N30    0.03852
C33    C227    0.03473
C34    N29    0.03852
C34    C120    0.03471
C35    C36    0.09650
C35    C38    0.05860
C35    C81    0.05816
C36    C37    0.05860
C36    C82    0.05816
C37    C42    0.05877
C37    H13    0.07258
C38    C41    0.05877
C38    H14    0.07258
C39    N15    0.03830
C39    H15    0.02883
C39    C294    0.04550
C40    N16    0.03830
C40    H16    0.02883
C40    C180    0.04550
N15    C119    0.04183
N16    C228    0.04182
C41    C42    0.09656
C41    C185    0.06192
C42    C155    0.06192
N17    C68    0.02917
N18    C67    0.02917
C43    N26    0.02888
C43    C270    0.04421
C44    N25    0.02888
C44    C306    0.04421
C45    C46    0.09658
C45    C48    0.05312
C45    C81    0.05081
C46    C47    0.05312
C46    C82    0.05081
C47    C52    0.05312
C47    H17    0.07257
C48    C51    0.05312
C48    H18    0.07257
C49    N19    0.03199
C49    H19    0.02419
C49    C143    0.05232
C50    N20    0.03199
C50    H20    0.02419
C50    C234    0.05230
N19    C305    0.04978
N20    C269    0.04978
C51    C52    0.09674
C51    C312    0.05766
C52    C168    0.05765
N21    C76    0.02797
N22    C75    0.02797
C53    N34    0.02755
C53    C240    0.03357
C54    N33    0.02755
C54    C282    0.03357
C55    C56    0.09648
C55    C58    0.05410
C55    C81    0.05226
C56    C57    0.05410
C56    C82    0.05226
C57    H21    0.07257
C58    H22    0.07257
C59    N23    0.03300
C59    H23    0.03293
C59    C252    0.04706
C60    N24    0.03300
C60    H24    0.03293
C60    C149    0.04709
N23    C281    0.04325
N24    C239    0.04325
C61    C62    0.09702
C61    C86    0.05392
C61    C125    0.05686
C62    C85    0.05392
C62    C108    0.05686
C63    C64    0.09690
C63    C88    0.05884
C63    C203    0.06163
C64    C87    0.05884
C64    C215    0.06163
C65    C66    0.09702
C65    C84    0.05383
C65    C288    0.05720
C66    C83    0.05383
C66    C101    0.05721
C67    C162    0.03138
C68    C264    0.03138
C69    N27    0.03859
C69    H25    0.02830
C69    C287    0.02835
C70    N28    0.03859
C70    H26    0.02830
C70    C102    0.02834
N27    C161    0.02791
N28    C263    0.02791
C71    C300    0.03170
C72    C131    0.03170
C73    N31    0.03855
C73    H27    0.02811
C73    C126    0.02760
C74    N32    0.03855
C74    H28    0.02811
C74    C107    0.02760
N31    C299    0.02739
N32    C132    0.02739
C75    C221    0.04201
C76    C191    0.04201
C77    N35    0.03140
C77    H29    0.02740
C77    C204    0.04074
C78    N36    0.03140
C78    H30    0.02740
C78    C216    0.04074
N35    C222    0.03970
N36    C192    0.03970
C79    H31    0.07260
C80    H32    0.07260
C81    H33    0.07261
C82    H34    0.07261
C83    C95    0.05390
C83    H35    0.07257
C84    C96    0.05390
C84    H36    0.07257
C85    C91    0.05401
C85    H37    0.07256
C86    C92    0.05401
C86    H38    0.07256
C87    C93    0.05882
C87    H39    0.07258
C88    C94    0.05882
C88    H40    0.07258
C89    C91    0.05153
C89    C93    0.05825
C89    C95    0.05151
C89    H41    0.07260
C90    C92    0.05153
C90    C94    0.05825
C90    C96    0.05151
C90    H42    0.07260
C91    C92    0.09654
C93    C94    0.09658
C95    C96    0.09658
Sn97    Sn100    0.03124
Sn97    C101    0.03960
Sn97    Te4    0.03153
Sn98    Sn99    0.03124
Sn98    C101    0.03170
Sn98    Te1    0.03955
Sn99    C102    0.03962
Sn99    Te2    0.03152
Sn100    C102    0.03168
Sn100    Te3    0.03955
Te1    Mg2    0.04087
Te2    Mg2    0.05448
Te3    Mg1    0.04089
Te4    Mg1    0.05448
Sn103    Sn106    0.03126
Sn103    C107    0.03175
Sn103    Te8    0.03950
Sn104    Sn105    0.03126
Sn104    C107    0.03958
Sn104    Te5    0.03163
Sn105    C108    0.03178
Sn105    Te6    0.03952
Sn106    C108    0.03958
Sn106    Te7    0.03163
Te5    Mg4    0.05444
Te6    Mg4    0.04103
Te7    Mg3    0.05442
Te8    Mg3    0.04103
Sn109    Sn112    0.04849
Sn109    C113    0.04120
Sn109    Te12    0.03838
Sn110    Sn111    0.04849
Sn110    C113    0.03836
Sn110    Te9    0.04125
Sn111    C114    0.04124
Sn111    Te10    0.03843
Sn112    C114    0.03837
Sn112    Te11    0.04125
Te9    Mg6    0.05825
Te10    Mg6    0.06252
Te11    Mg5    0.05820
Te12    Mg5    0.06252
Sn115    Sn118    0.03682
Sn115    C119    0.04002
Sn115    Te16    0.03323
Sn116    Sn117    0.03682
Sn116    C119    0.03335
Sn116    Te13    0.04000
Sn117    C120    0.04005
Sn117    Te14    0.03322
Sn118    C120    0.03334
Sn118    Te15    0.04000
Te13    Mg8    0.04589
Te14    Mg8    0.05687
Te15    Mg7    0.04591
Te16    Mg7    0.05687
Sn121    Sn124    0.03125
Sn121    C125    0.03176
Sn121    Te20    0.03950
Sn122    Sn123    0.03125
Sn122    C125    0.03958
Sn122    Te17    0.03164
Sn123    C126    0.03177
Sn123    Te18    0.03951
Sn124    C126    0.03958
Sn124    Te19    0.03164
Te17    Mg10    0.05443
Te18    Mg10    0.04101
Te19    Mg9    0.05442
Te20    Mg9    0.04101
Sn127    Sn130    0.02832
Sn127    C131    0.03040
Sn127    Te24    0.04008
Sn128    Sn129    0.02832
Sn128    C131    0.04017
Sn128    Te21    0.03024
Sn129    C132    0.03041
Sn129    Te22    0.04011
Sn130    C132    0.04017
Sn130    Te23    0.03024
Te21    Mg12    0.05450
Te22    Mg12    0.03725
Te23    Mg11    0.05448
Te24    Mg11    0.03725
Sn133    Sn136    0.03786
Sn133    C137    0.03214
Sn133    Te28    0.04010
Sn134    Sn135    0.03786
Sn134    C137    0.04013
Sn134    Te25    0.03208
Sn135    C138    0.03216
Sn135    Te26    0.04013
Sn136    C138    0.04013
Sn136    Te27    0.03208
Te25    Mg14    0.05783
Te26    Mg14    0.04494
Te27    Mg13    0.05780
Te28    Mg13    0.04494
Sn139    Sn142    0.05382
Sn139    C143    0.03757
Sn139    Te32    0.02951
Sn140    Sn141    0.05382
Sn140    C143    0.02932
Sn140    Te29    0.03777
Sn141    C144    0.03761
Sn141    Te30    0.02953
Sn142    C144    0.02933
Sn142    Te31    0.03777
Te29    Mg16    0.05306
Te30    Mg16    0.06388
Te31    Mg15    0.05303
Te32    Mg15    0.06388
Sn145    Sn148    0.04858
Sn145    C149    0.04065
Sn145    Te36    0.03977
Sn146    Sn147    0.04858
Sn146    C149    0.03975
Sn146    Te33    0.04069
Sn147    C150    0.04068
Sn147    Te34    0.03982
Sn148    C150    0.03976
Sn148    Te35    0.04069
Te33    Mg18    0.06013
Te34    Mg18    0.06147
Te35    Mg17    0.06008
Te36    Mg17    0.06147
Sn151    Sn154    0.05388
Sn151    C155    0.03571
Sn151    Te40    0.03107
Sn152    Sn153    0.05388
Sn152    C155    0.03089
Sn152    Te37    0.03590
Sn153    C156    0.03573
Sn153    Te38    0.03106
Sn154    C156    0.03090
Sn154    Te39    0.03590
Te37    Mg20    0.05526
Te38    Mg20    0.06156
Te39    Mg19    0.05527
Te40    Mg19    0.06156
Sn157    Sn160    0.02767
Sn157    C161    0.03090
Sn157    Te44    0.04009
Sn158    Sn159    0.02767
Sn158    C161    0.04019
Sn158    Te41    0.03074
Sn159    C162    0.03092
Sn159    Te42    0.04009
Sn160    C162    0.04018
Sn160    Te43    0.03074
Te41    Mg22    0.05414
Te42    Mg22    0.03766
Te43    Mg21    0.05413
Te44    Mg21    0.03766
Sn163    Sn166    0.04871
Sn163    C167    0.04481
Sn163    Te48    0.03299
Sn164    Sn165    0.04871
Sn164    C167    0.03299
Sn164    Te45    0.04489
Sn165    C168    0.04485
Sn165    Te46    0.03303
Sn166    C168    0.03300
Sn166    Te47    0.04489
Te45    Mg24    0.05063
Te46    Mg24    0.06836
Te47    Mg23    0.05059
Te48    Mg23    0.06836
Sn169    Sn172    0.03714
Sn169    C173    0.04171
Sn169    Te52    0.02965
Sn170    Sn171    0.03714
Sn170    C173    0.02976
Sn170    Te49    0.04171
Sn171    C174    0.04174
Sn171    Te50    0.02968
Sn172    C174    0.02975
Sn172    Te51    0.04171
Te49    Mg26    0.04065
Te50    Mg26    0.06011
Te51    Mg25    0.04061
Te52    Mg25    0.06011
Sn175    Sn178    0.04804
Sn175    C179    0.03386
Sn175    Te56    0.04471
Sn176    Sn177    0.04804
Sn176    C179    0.04468
Sn176    Te53    0.03385
Sn177    C180    0.03388
Sn177    Te54    0.04471
Sn178    C180    0.04468
Sn178    Te55    0.03385
Te53    Mg28    0.06763
Te54    Mg28    0.05123
Te55    Mg27    0.06763
Te56    Mg27    0.05123
Sn181    Sn184    0.05388
Sn181    C185    0.03571
Sn181    Te60    0.03107
Sn182    Sn183    0.05388
Sn182    C185    0.03089
Sn182    Te57    0.03590
Sn183    C186    0.03573
Sn183    Te58    0.03106
Sn184    C186    0.03090
Sn184    Te59    0.03590
Te57    Mg30    0.05526
Te58    Mg30    0.06156
Te59    Mg29    0.05527
Te60    Mg29    0.06156
Sn187    Sn190    0.04010
Sn187    C191    0.03036
Sn187    Te64    0.02962
Sn188    Sn189    0.04010
Sn188    C191    0.02955
Sn188    Te61    0.03043
Sn189    C192    0.03038
Sn189    Te62    0.02964
Sn190    C192    0.02956
Sn190    Te63    0.03043
Te61    Mg32    0.04693
Te62    Mg32    0.04807
Te63    Mg31    0.04691
Te64    Mg31    0.04807
Sn193    Sn196    0.04692
Sn193    C197    0.02856
Sn193    Te68    0.03337
Sn194    Sn195    0.04692
Sn194    C197    0.03325
Sn194    Te65    0.02869
Sn195    C198    0.02858
Sn195    Te66    0.03336
Sn196    C198    0.03326
Sn196    Te67    0.02869
Te65    Mg34    0.05545
Te66    Mg34    0.04909
Te67    Mg33    0.05546
Te68    Mg33    0.04909
Sn199    Sn202    0.04308
Sn199    C203    0.02867
Sn199    Te72    0.02960
Sn200    Sn201    0.04308
Sn200    C203    0.02949
Sn200    Te69    0.02878
Sn201    C204    0.02869
Sn201    Te70    0.02960
Sn202    C204    0.02950
Sn202    Te71    0.02878
Te69    Mg36    0.04913
Te70    Mg36    0.04800
Te71    Mg35    0.04914
Te72    Mg35    0.04800
Sn205    Sn208    0.03786
Sn205    C209    0.04012
Sn205    Te76    0.03207
Sn206    Sn207    0.03786
Sn206    C209    0.03215
Sn206    Te73    0.04011
Sn207    C210    0.04015
Sn207    Te74    0.03211
Sn208    C210    0.03215
Sn208    Te75    0.04011
Te73    Mg38    0.04497
Te74    Mg38    0.05781
Te75    Mg37    0.04492
Te76    Mg37    0.05781
Sn211    Sn214    0.04308
Sn211    C215    0.02867
Sn211    Te80    0.02960
Sn212    Sn213    0.04308
Sn212    C215    0.02949
Sn212    Te77    0.02878
Sn213    C216    0.02869
Sn213    Te78    0.02960
Sn214    C216    0.02950
Sn214    Te79    0.02878
Te77    Mg40    0.04913
Te78    Mg40    0.04800
Te79    Mg39    0.04914
Te80    Mg39    0.04800
Sn217    Sn220    0.04010
Sn217    C221    0.03036
Sn217    Te84    0.02962
Sn218    Sn219    0.04010
Sn218    C221    0.02955
Sn218    Te81    0.03043
Sn219    C222    0.03038
Sn219    Te82    0.02964
Sn220    C222    0.02956
Sn220    Te83    0.03043
Te81    Mg42    0.04693
Te82    Mg42    0.04807
Te83    Mg41    0.04691
Te84    Mg41    0.04807
Sn223    Sn226    0.03683
Sn223    C227    0.03333
Sn223    Te88    0.03998
Sn224    Sn225    0.03683
Sn224    C227    0.04003
Sn224    Te85    0.03326
Sn225    C228    0.03335
Sn225    Te86    0.04001
Sn226    C228    0.04003
Sn226    Te87    0.03326
Te85    Mg44    0.05689
Te86    Mg44    0.04593
Te87    Mg43    0.05686
Te88    Mg43    0.04593
Sn229    Sn232    0.05381
Sn229    C233    0.03758
Sn229    Te92    0.02949
Sn230    Sn231    0.05381
Sn230    C233    0.02932
Sn230    Te89    0.03777
Sn231    C234    0.03761
Sn231    Te90    0.02949
Sn232    C234    0.02933
Sn232    Te91    0.03777
Te89    Mg46    0.05302
Te90    Mg46    0.06386
Te91    Mg45    0.05303
Te92    Mg45    0.06386
Sn235    Sn238    0.03746
Sn235    C239    0.04099
Sn235    Te96    0.03006
Sn236    Sn237    0.03746
Sn236    C239    0.03019
Sn236    Te93    0.04099
Sn237    C240    0.04101
Sn237    Te94    0.03006
Sn238    C240    0.03017
Sn238    Te95    0.04099
Te93    Mg48    0.04171
Te94    Mg48    0.05923
Te95    Mg47    0.04173
Te96    Mg47    0.05923
Sn241    Sn244    0.04849
Sn241    C245    0.04120
Sn241    Te100    0.03838
Sn242    Sn243    0.04849
Sn242    C245    0.03836
Sn242    Te97    0.04125
Sn243    C246    0.04124
Sn243    Te98    0.03843
Sn244    C246    0.03837
Sn244    Te99    0.04125
Te97    Mg50    0.05825
Te98    Mg50    0.06252
Te99    Mg49    0.05820
Te100    Mg49    0.06252
Sn247    Sn250    0.04857
Sn247    C251    0.03975
Sn247    Te104    0.04067
Sn248    Sn249    0.04857
Sn248    C251    0.04066
Sn248    Te101    0.03978
Sn249    C252    0.03977
Sn249    Te102    0.04068
Sn250    C252    0.04066
Sn250    Te103    0.03978
Te101    Mg52    0.06145
Te102    Mg52    0.06007
Te103    Mg51    0.06145
Te104    Mg51    0.06007
Sn253    Sn256    0.03713
Sn253    C257    0.04172
Sn253    Te108    0.02963
Sn254    Sn255    0.03713
Sn254    C257    0.02977
Sn254    Te105    0.04172
Sn255    C258    0.04174
Sn255    Te106    0.02963
Sn256    C258    0.02975
Sn256    Te107    0.04172
Te105    Mg54    0.04059
Te106    Mg54    0.06010
Te107    Mg53    0.04061
Te108    Mg53    0.06010
Sn259    Sn262    0.02767
Sn259    C263    0.03090
Sn259    Te112    0.04009
Sn260    Sn261    0.02767
Sn260    C263    0.04019
Sn260    Te109    0.03074
Sn261    C264    0.03092
Sn261    Te110    0.04009
Sn262    C264    0.04018
Sn262    Te111    0.03074
Te109    Mg56    0.05414
Te110    Mg56    0.03766
Te111    Mg55    0.05413
Te112    Mg55    0.03766
Sn265    Sn268    0.04669
Sn265    C269    0.02992
Sn265    Te116    0.03117
Sn266    Sn267    0.04669
Sn266    C269    0.03105
Sn266    Te113    0.03006
Sn267    C270    0.02994
Sn267    Te114    0.03117
Sn268    C270    0.03106
Sn268    Te115    0.03006
Te113    Mg58    0.05261
Te114    Mg58    0.05108
Te115    Mg57    0.05262
Te116    Mg57    0.05108
Sn271    Sn274    0.04692
Sn271    C275    0.02856
Sn271    Te120    0.03337
Sn272    Sn273    0.04692
Sn272    C275    0.03325
Sn272    Te117    0.02869
Sn273    C276    0.02858
Sn273    Te118    0.03336
Sn274    C276    0.03326
Sn274    Te119    0.02869
Te117    Mg60    0.05545
Te118    Mg60    0.04909
Te119    Mg59    0.05546
Te120    Mg59    0.04909
Sn277    Sn280    0.03746
Sn277    C281    0.04099
Sn277    Te124    0.03006
Sn278    Sn279    0.03746
Sn278    C281    0.03019
Sn278    Te121    0.04099
Sn279    C282    0.04101
Sn279    Te122    0.03006
Sn280    C282    0.03017
Sn280    Te123    0.04099
Te121    Mg62    0.04171
Te122    Mg62    0.05923
Te123    Mg61    0.04173
Te124    Mg61    0.05923
Sn283    Sn286    0.03125
Sn283    C287    0.03960
Sn283    Te128    0.03154
Sn284    Sn285    0.03125
Sn284    C287    0.03169
Sn284    Te125    0.03955
Sn285    C288    0.03962
Sn285    Te126    0.03158
Sn286    C288    0.03168
Sn286    Te127    0.03955
Te125    Mg64    0.04093
Te126    Mg64    0.05449
Te127    Mg63    0.04089
Te128    Mg63    0.05449
Sn289    Sn292    0.04804
Sn289    C293    0.04467
Sn289    Te132    0.03383
Sn290    Sn291    0.04804
Sn290    C293    0.03387
Sn290    Te129    0.04473
Sn291    C294    0.04470
Sn291    Te130    0.03382
Sn292    C294    0.03386
Sn292    Te131    0.04473
Te129    Mg66    0.05122
Te130    Mg66    0.06763
Te131    Mg65    0.05124
Te132    Mg65    0.06763
Sn295    Sn298    0.02832
Sn295    C299    0.03039
Sn295    Te136    0.04008
Sn296    Sn297    0.02832
Sn296    C299    0.04018
Sn296    Te133    0.03024
Sn297    C300    0.03041
Sn297    Te134    0.04009
Sn298    C300    0.04017
Sn298    Te135    0.03024
Te133    Mg68    0.05449
Te134    Mg68    0.03726
Te135    Mg67    0.05448
Te136    Mg67    0.03726
Sn301    Sn304    0.04669
Sn301    C305    0.03105
Sn301    Te140    0.03005
Sn302    Sn303    0.04669
Sn302    C305    0.02992
Sn302    Te137    0.03119
Sn303    C306    0.03107
Sn303    Te138    0.03004
Sn304    C306    0.02993
Sn304    Te139    0.03119
Te137    Mg70    0.05109
Te138    Mg70    0.05261
Te139    Mg69    0.05109
Te140    Mg69    0.05261
Sn307    Sn310    0.04871
Sn307    C311    0.03298
Sn307    Te144    0.04489
Sn308    Sn309    0.04871
Sn308    C311    0.04482
Sn308    Te141    0.03299
Sn309    C312    0.03301
Sn309    Te142    0.04492
Sn310    C312    0.04483
Sn310    Te143    0.03299
Te141    Mg72    0.06839
Te142    Mg72    0.05060
Te143    Mg71    0.06835
Te144    Mg71    0.05060
